* NGSPICE file created from controller.ext - technology: ihp-sg13g2

.subckt sg13g2_dfrbp_1 RESET_B D Q_N CLK VSS VDD Q
X0 VSS CLK a_373_436# VSS sg13_lv_nmos ad=0.83709p pd=4.3575u as=0.30944p ps=3.2577u w=0.74u l=0.13u
**devattr s=10064,432 d=6176,247
X1 a_928_162# a_569_436# a_801_507# VSS sg13_lv_nmos ad=0 pd=0 as=0.20504p ps=2.352u w=0.42u l=0.13u
**devattr s=3192,160 d=2184,136
X2 VDD a_1336_117# a_2145_118# VDD sg13_lv_pmos ad=0.66917p pd=3.76882u as=0.53683p ps=4.17583u w=0.84u l=0.13u
**devattr s=11424,472 d=8064,300
X3 VDD a_952_445# a_903_507# VDD sg13_lv_pmos ad=0.33458p pd=1.88441u as=0 ps=0 w=0.42u l=0.13u
**devattr s=2058,133 d=4714,205
X4 a_569_436# a_373_436# VSS VSS sg13_lv_nmos ad=0.7986p pd=8.61632u as=0.83709p ps=4.3575u w=0.74u l=0.13u
**devattr s=6176,247 d=10064,432
X5 Q_N a_1336_117# VSS VSS sg13_lv_nmos ad=0.40726p pd=2.50645u as=0.83709p ps=4.3575u w=0.74u l=0.13u
**devattr s=10064,432 d=11100,446
X6 VSS RESET_B a_170_122# VSS sg13_lv_nmos ad=0.4751p pd=2.47317u as=0 ps=0 w=0.42u l=0.13u
**devattr s=2016,132 d=5712,304
X7 a_952_445# a_801_507# VDD VDD sg13_lv_pmos ad=0.2942p pd=3.14329u as=0.79663p ps=4.4867u w=1u l=0.13u
**devattr s=13600,536 d=7600,276
X8 a_76_122# D VDD VDD sg13_lv_pmos ad=0.29572p pd=3.502u as=0.33458p ps=1.88441u w=0.42u l=0.13u
**devattr s=5712,304 d=3192,160
X9 a_1336_117# a_373_436# a_952_445# VDD sg13_lv_pmos ad=0.36149p pd=4u as=0.2942p ps=3.14329u w=1u l=0.13u
**devattr s=7600,276 d=7078,312
X10 a_1720_117# RESET_B VSS VSS sg13_lv_nmos ad=0 pd=0 as=0.4751p ps=2.47317u w=0.42u l=0.13u
**devattr s=3612,170 d=1890,129
X11 VDD RESET_B a_76_122# VDD sg13_lv_pmos ad=0.33458p pd=1.88441u as=0.29572p ps=3.502u w=0.42u l=0.13u
**devattr s=3192,160 d=5712,304
X12 VDD a_1582_81# a_1561_515# VDD sg13_lv_pmos ad=0.33458p pd=1.88441u as=0 ps=0 w=0.42u l=0.13u
**devattr s=1722,125 d=3192,160
X13 a_1561_515# a_569_436# a_1336_117# VDD sg13_lv_pmos ad=0 pd=0 as=0.15183p ps=1.68u w=0.42u l=0.13u
**devattr s=7078,312 d=1722,125
X14 a_1582_81# RESET_B VDD VDD sg13_lv_pmos ad=0.27307p pd=3.13u as=0.33458p ps=1.88441u w=0.42u l=0.13u
**devattr s=3192,160 d=3192,160
X15 VDD a_1336_117# a_1582_81# VDD sg13_lv_pmos ad=0.33458p pd=1.88441u as=0.27307p ps=3.13u w=0.42u l=0.13u
**devattr s=3192,160 d=8652,310
X16 VSS a_1336_117# a_2145_118# VSS sg13_lv_nmos ad=0.62216p pd=3.23868u as=0.3515p ps=2.73417u w=0.55u l=0.13u
**devattr s=7480,356 d=5802,230
X17 a_801_507# RESET_B VDD VDD sg13_lv_pmos ad=0.20504p pd=2.352u as=0.33458p ps=1.88441u w=0.42u l=0.13u
**devattr s=4714,205 d=6132,314
X18 VSS a_1582_81# a_1530_117# VSS sg13_lv_nmos ad=0.4751p pd=2.47317u as=0 ps=0 w=0.42u l=0.13u
**devattr s=2184,136 d=3612,170
X19 VSS RESET_B a_1006_162# VSS sg13_lv_nmos ad=0.4751p pd=2.47317u as=0 ps=0 w=0.42u l=0.13u
**devattr s=1932,130 d=7300,265
X20 a_1336_117# a_569_436# a_952_445# VSS sg13_lv_nmos ad=0.23135p pd=2.56u as=0.18829p ps=2.01171u w=0.64u l=0.13u
**devattr s=7759,258 d=8068,296
X21 Q_N a_1336_117# VDD VDD sg13_lv_pmos ad=0.61639p pd=3.79355u as=0.89223p ps=5.0251u w=1.12u l=0.13u
**devattr s=8652,310 d=30464,720
X22 Q a_2145_118# VSS VSS sg13_lv_nmos ad=0.30227p pd=2.44677u as=0.83709p ps=4.3575u w=0.74u l=0.13u
**devattr s=5802,230 d=10064,432
X23 Q a_2145_118# VDD VDD sg13_lv_pmos ad=0.45748p pd=3.70323u as=0.89223p ps=5.0251u w=1.12u l=0.13u
**devattr s=8064,300 d=15232,584
X24 a_1006_162# a_952_445# a_928_162# VSS sg13_lv_nmos ad=0 pd=0 as=0 ps=0 w=0.42u l=0.13u
**devattr s=2184,136 d=1932,130
X25 a_952_445# a_801_507# VSS VSS sg13_lv_nmos ad=0.18829p pd=2.01171u as=0.72397p ps=3.76865u w=0.64u l=0.13u
**devattr s=7300,265 d=7759,258
X26 VDD CLK a_373_436# VDD sg13_lv_pmos ad=0.79663p pd=4.4867u as=0.41816p ps=4.4023u w=1u l=0.13u
**devattr s=13600,536 d=7600,276
X27 a_801_507# a_569_436# a_76_122# VDD sg13_lv_pmos ad=0.20504p pd=2.352u as=0.29572p ps=3.502u w=0.42u l=0.13u
**devattr s=5712,304 d=3192,160
X28 a_569_436# a_373_436# VDD VDD sg13_lv_pmos ad=1.0792p pd=11.64368u as=0.79663p ps=4.4867u w=1u l=0.13u
**devattr s=7600,276 d=13600,536
X29 a_903_507# a_373_436# a_801_507# VDD sg13_lv_pmos ad=0 pd=0 as=0.20504p ps=2.352u w=0.42u l=0.13u
**devattr s=3192,160 d=2058,133
X30 a_1530_117# a_373_436# a_1336_117# VSS sg13_lv_nmos ad=0 pd=0 as=0.15183p ps=1.68u w=0.42u l=0.13u
**devattr s=8068,296 d=2184,136
X31 a_1582_81# a_1336_117# a_1720_117# VSS sg13_lv_nmos ad=0.27307p pd=3.13u as=0 ps=0 w=0.42u l=0.13u
**devattr s=1890,129 d=5712,304
X32 a_170_122# D a_76_122# VSS sg13_lv_nmos ad=0 pd=0 as=0.29572p ps=3.502u w=0.42u l=0.13u
**devattr s=5712,304 d=2016,132
X33 a_801_507# a_373_436# a_76_122# VSS sg13_lv_nmos ad=0.20504p pd=2.352u as=0.29572p ps=3.502u w=0.42u l=0.13u
**devattr s=5712,304 d=3192,160
.ends

.subckt sg13g2_decap_4 VDD VSS
X0 VDD VSS VDD VDD sg13_lv_pmos ad=1.11242p pd=5.475u as=1.11242p ps=5.475u w=1u l=1u
**devattr d=13600,536
X1 VSS VDD VSS VSS sg13_lv_nmos ad=0.92306p pd=4.66u as=0.92306p ps=4.66u w=0.42u l=1u
**devattr d=5712,304
.ends

.subckt sg13g2_and2_1 X VSS VDD B A
X0 X a_45_160# VDD VDD sg13_lv_pmos ad=0.57704p pd=3.72731u as=0.65224p ps=4.04u w=1.12u l=0.13u
**devattr s=7672,300 d=15232,584
X1 X a_45_160# VSS VSS sg13_lv_nmos ad=0.38126p pd=2.46269u as=0.69662p ps=4.04855u w=0.74u l=0.13u
**devattr s=5324,224 d=10064,432
X2 a_45_160# A VDD VDD sg13_lv_pmos ad=0.30734p pd=2.85672u as=0.48918p ps=3.03u w=0.84u l=0.13u
**devattr s=11424,472 d=6384,244
X3 VDD B a_45_160# VDD sg13_lv_pmos ad=0.48918p pd=3.03u as=0.30734p ps=2.85672u w=0.84u l=0.13u
**devattr s=6384,244 d=7672,300
X4 a_139_160# A a_45_160# VSS sg13_lv_nmos ad=0 pd=0 as=0.23417p ps=2.17655u w=0.64u l=0.13u
**devattr s=8704,392 d=4864,204
X5 VSS B a_139_160# VSS sg13_lv_nmos ad=0.60248p pd=3.50145u as=0 ps=0 w=0.64u l=0.13u
**devattr s=4864,204 d=5324,224
.ends

.subckt sg13g2_xnor2_1 Y B VDD A VSS
X0 a_192_429# A VDD VDD sg13_lv_pmos ad=0.38321p pd=4.22172u as=0.55453p ps=3.34286u w=0.84u l=0.13u
**devattr s=18144,552 d=6384,244
X1 VSS A a_341_118# VSS sg13_lv_nmos ad=0.73099p pd=4.13981u as=82.86666f ps=1.05333u w=0.74u l=0.13u
**devattr s=10064,432 d=7592,272
X2 VDD B a_192_429# VDD sg13_lv_pmos ad=0.55453p pd=3.34286u as=0.38321p ps=4.22172u w=0.84u l=0.13u
**devattr s=6384,244 d=11564,339
X3 a_435_412# A VDD VDD sg13_lv_pmos ad=0 pd=0 as=0.73937p ps=4.45714u w=1.12u l=0.13u
**devattr s=11564,339 d=5712,275
X4 a_155_160# A VSS VSS sg13_lv_nmos ad=0 pd=0 as=0.63221p ps=3.58038u w=0.64u l=0.13u
**devattr s=9088,398 d=3136,177
X5 a_341_118# B VSS VSS sg13_lv_nmos ad=82.86666f pd=1.05333u as=0.73099p ps=4.13981u w=0.74u l=0.13u
**devattr s=7592,272 d=5624,224
X6 Y a_192_429# a_341_118# VSS sg13_lv_nmos ad=0.22797p pd=1.91208u as=82.86666f ps=1.05333u w=0.74u l=0.13u
**devattr s=5624,224 d=10064,432
X7 VDD a_192_429# Y VDD sg13_lv_pmos ad=0.73937p pd=4.45714u as=0.34504p ps=2.89396u w=1.12u l=0.13u
**devattr s=9632,310 d=15232,584
X8 Y B a_435_412# VDD sg13_lv_pmos ad=0.34504p pd=2.89396u as=0 ps=0 w=1.12u l=0.13u
**devattr s=5712,275 d=9632,310
X9 a_192_429# B a_155_160# VSS sg13_lv_nmos ad=0.29197p pd=3.21655u as=0 ps=0 w=0.64u l=0.13u
**devattr s=3136,177 d=8704,392
.ends

.subckt sg13g2_o21ai_1 VSS VDD Y B1 A2 A1
X0 VSS A1 a_22_110# VSS sg13_lv_nmos ad=0.5776p pd=3.46u as=0.1248p ps=1.66667u w=0.74u l=0.15u
**devattr s=10064,432 d=5624,224
X1 a_120_432# A1 VDD VDD sg13_lv_pmos ad=0 pd=0 as=0.7024p ps=5.02u w=1.12u l=0.15u
**devattr s=15232,584 d=8512,300
X2 a_22_110# A2 VSS VSS sg13_lv_nmos ad=0.1248p pd=1.66667u as=0.5776p ps=3.46u w=0.74u l=0.15u
**devattr s=5624,224 d=5624,224
X3 Y B1 a_22_110# VSS sg13_lv_nmos ad=0.12952p pd=1.69852u as=0.1248p ps=1.66667u w=0.74u l=0.15u
**devattr s=5624,224 d=10064,432
X4 Y A2 a_120_432# VDD sg13_lv_pmos ad=0.19604p pd=2.57074u as=0 ps=0 w=1.12u l=0.15u
**devattr s=8512,300 d=8512,300
X5 VDD B1 Y VDD sg13_lv_pmos ad=0.7024p pd=5.02u as=0.19604p ps=2.57074u w=1.12u l=0.15u
**devattr s=8512,300 d=15232,584
.ends

.subckt sg13g2_nor2_1 A VDD Y VSS B
X0 Y A VSS VSS sg13_lv_nmos ad=0.19606p pd=1.86992u as=0.6993p ps=4.49u w=0.74u l=0.13u
**devattr s=10064,432 d=5624,224
X1 VSS B Y VSS sg13_lv_nmos ad=0.6993p pd=4.49u as=0.19606p ps=1.86992u w=0.74u l=0.13u
**devattr s=5624,224 d=10064,432
X2 a_170_412# A VDD VDD sg13_lv_pmos ad=0 pd=0 as=1.188p ps=7.36u w=1.12u l=0.13u
**devattr s=16128,592 d=4704,266
X3 Y B a_170_412# VDD sg13_lv_pmos ad=0.29675p pd=2.83015u as=0 ps=0 w=1.12u l=0.13u
**devattr s=4704,266 d=15232,584
.ends

.subckt sg13g2_decap_8 VDD VSS
X0 VSS VDD VSS VSS sg13_lv_nmos ad=0.78172p pd=3.895u as=0.78172p ps=3.895u w=0.42u l=1u
**devattr d=5712,304
X1 VDD VSS VDD VDD sg13_lv_pmos ad=1.03279p pd=4.295u as=1.03279p ps=4.295u w=1u l=1u
**devattr d=7600,276
X2 VSS VDD VSS VSS sg13_lv_nmos ad=0.78172p pd=3.895u as=0.78172p ps=3.895u w=0.42u l=1u
**devattr d=3192,160
X3 VDD VSS VDD VDD sg13_lv_pmos ad=1.03279p pd=4.295u as=1.03279p ps=4.295u w=1u l=1u
**devattr d=13600,536
.ends

.subckt sg13g2_a221oi_1 VSS VDD C1 Y B2 B1 A2 A1
X0 a_550_140# A1 Y VSS sg13_lv_nmos ad=0 pd=0 as=0.49283p ps=4.45772u w=0.74u l=0.13u
**devattr s=10064,432 d=5624,224
X1 VSS A2 a_550_140# VSS sg13_lv_nmos ad=0.69493p pd=3.86667u as=0 ps=0 w=0.74u l=0.13u
**devattr s=5624,224 d=10064,432
X2 a_142_412# C1 Y VDD sg13_lv_pmos ad=0.1325p pd=1.32333u as=0.74591p ps=6.74683u w=1.12u l=0.13u
**devattr s=15232,584 d=8512,300
X3 a_244_412# B2 a_142_412# VDD sg13_lv_pmos ad=0.12615p pd=1.2475u as=0.1325p ps=1.32333u w=1.12u l=0.13u
**devattr s=8512,300 d=8512,300
X4 a_142_412# B1 a_244_412# VDD sg13_lv_pmos ad=0.1325p pd=1.32333u as=0.12615p ps=1.2475u w=1.12u l=0.13u
**devattr s=8512,300 d=15232,584
X5 a_244_412# A1 VDD VDD sg13_lv_pmos ad=0.12615p pd=1.2475u as=1.06775p ps=5.995u w=1.12u l=0.13u
**devattr s=15232,584 d=8512,300
X6 VDD A2 a_244_412# VDD sg13_lv_pmos ad=1.06775p pd=5.995u as=0.12615p ps=1.2475u w=1.12u l=0.13u
**devattr s=8512,300 d=15232,584
X7 VSS C1 Y VSS sg13_lv_nmos ad=0.69493p pd=3.86667u as=0.49283p ps=4.45772u w=0.74u l=0.13u
**devattr s=10064,432 d=5624,224
X8 a_244_140# B2 VSS VSS sg13_lv_nmos ad=0 pd=0 as=0.69493p ps=3.86667u w=0.74u l=0.13u
**devattr s=5624,224 d=5624,224
X9 Y B1 a_244_140# VSS sg13_lv_nmos ad=0.49283p pd=4.45772u as=0 ps=0 w=0.74u l=0.13u
**devattr s=5624,224 d=10064,432
.ends

.subckt sg13g2_nand3b_1 A_N Y VDD VSS B C
X0 Y a_94_160# a_437_122# VSS sg13_lv_nmos ad=0.2466p pd=1.8518u as=0 ps=0 w=0.74u l=0.13u
**devattr s=4366,207 d=13616,480
X1 VSS A_N a_94_160# VSS sg13_lv_nmos ad=0.71551p pd=3.87132u as=0.39733p ps=4.01223u w=0.55u l=0.13u
**devattr s=7480,356 d=7356,251
X2 a_437_122# B a_317_122# VSS sg13_lv_nmos ad=0 pd=0 as=0 ps=0 w=0.74u l=0.13u
**devattr s=6956,242 d=4366,207
X3 VDD A_N a_94_160# VDD sg13_lv_pmos ad=0.41918p pd=2.47u as=0.60682p ps=6.12777u w=0.84u l=0.13u
**devattr s=11424,472 d=8792,306
X4 Y C VDD VDD sg13_lv_pmos ad=0.37323p pd=2.80273u as=0.55891p ps=3.29333u w=1.12u l=0.13u
**devattr s=8792,306 d=8512,300
X5 VDD B Y VDD sg13_lv_pmos ad=0.55891p pd=3.29333u as=0.37323p ps=2.80273u w=1.12u l=0.13u
**devattr s=8512,300 d=8512,300
X6 Y a_94_160# VDD VDD sg13_lv_pmos ad=0.37323p pd=2.80273u as=0.55891p ps=3.29333u w=1.12u l=0.13u
**devattr s=8512,300 d=15232,584
X7 a_317_122# C VSS VSS sg13_lv_nmos ad=0 pd=0 as=0.96269p ps=5.20868u w=0.74u l=0.13u
**devattr s=7356,251 d=6956,242
.ends

.subckt sg13g2_buf_2 VSS VDD X A
X0 a_21_304# A VSS VSS sg13_lv_nmos ad=0.48968p pd=5.10049u as=0.46243p ps=2.81962u w=0.64u l=0.13u
**devattr s=5484,224 d=8704,392
X1 a_21_304# A VDD VDD sg13_lv_pmos ad=0.76512p pd=7.96951u as=0.49485p ps=3.05247u w=1u l=0.13u
**devattr s=8344,300 d=13600,536
X2 X a_21_304# VSS VSS sg13_lv_nmos ad=0.11389p pd=0.82156u as=0.53468p ps=3.26019u w=0.74u l=0.13u
**devattr s=10064,432 d=5624,224
X3 X a_21_304# VDD VDD sg13_lv_pmos ad=0.17238p pd=1.24344u as=0.55423p ps=3.41877u w=1.12u l=0.13u
**devattr s=29344,710 d=8512,300
X4 VSS a_21_304# X VSS sg13_lv_nmos ad=0.53468p pd=3.26019u as=0.11389p ps=0.82156u w=0.74u l=0.13u
**devattr s=5624,224 d=5484,224
X5 VDD a_21_304# X VDD sg13_lv_pmos ad=0.55423p pd=3.41877u as=0.17238p ps=1.24344u w=1.12u l=0.13u
**devattr s=8512,300 d=8344,300
.ends

.subckt sg13g2_mux2_1 A1 X S VDD VSS A0
X0 a_559_412# A1 a_382_118# VDD sg13_lv_pmos ad=0 pd=0 as=0.40487p ps=4.24713u w=1u l=0.13u
**devattr s=8900,289 d=11900,319
X1 VDD S a_59_156# VDD sg13_lv_pmos ad=0.56153p pd=3.24121u as=0.95916p ps=9.84432u w=0.84u l=0.13u
**devattr s=11424,472 d=10120,306
X2 VSS S a_59_156# VSS sg13_lv_nmos ad=0.50248p pd=2.76191u as=0.62802p ps=6.44568u w=0.55u l=0.13u
**devattr s=7480,356 d=7578,254
X3 X a_382_118# VSS VSS sg13_lv_nmos ad=0.41253p pd=2.68946u as=0.67606p ps=3.71603u w=0.74u l=0.13u
**devattr s=5920,228 d=16132,514
X4 X a_382_118# VDD VDD sg13_lv_pmos ad=0.62437p pd=4.07054u as=0.7487p ps=4.32162u w=1.12u l=0.13u
**devattr s=8792,304 d=24192,664
X5 a_285_118# S VSS VSS sg13_lv_nmos ad=0 pd=0 as=0.67606p ps=3.71603u w=0.74u l=0.13u
**devattr s=7578,254 d=5254,219
X6 a_285_412# S VDD VDD sg13_lv_pmos ad=0 pd=0 as=0.66848p ps=3.85859u w=1u l=0.13u
**devattr s=10120,306 d=13300,333
X7 VSS a_59_156# a_496_118# VSS sg13_lv_nmos ad=0.67606p pd=3.71603u as=0 ps=0 w=0.74u l=0.13u
**devattr s=13468,330 d=5920,228
X8 VDD a_59_156# a_559_412# VDD sg13_lv_pmos ad=0.66848p pd=3.85859u as=0 ps=0 w=1u l=0.13u
**devattr s=11900,319 d=8792,304
X9 a_382_118# A1 a_285_118# VSS sg13_lv_nmos ad=0.2996p pd=3.14287u as=0 ps=0 w=0.74u l=0.13u
**devattr s=5254,219 d=6512,236
X10 a_496_118# A0 a_382_118# VSS sg13_lv_nmos ad=0 pd=0 as=0.2996p ps=3.14287u w=0.74u l=0.13u
**devattr s=6512,236 d=13468,330
X11 a_382_118# A0 a_285_412# VDD sg13_lv_pmos ad=0.40487p pd=4.24713u as=0 ps=0 w=1u l=0.13u
**devattr s=13300,333 d=8900,289
.ends

.subckt sg13g2_a21oi_1 VDD VSS A2 A1 B1 Y
X0 a_151_412# B1 Y VDD sg13_lv_pmos ad=0.28123p pd=1.77u as=0.26354p ps=2.67938u w=1.12u l=0.13u
**devattr s=15232,584 d=8512,300
X1 VDD A1 a_151_412# VDD sg13_lv_pmos ad=0.6138p pd=3.5u as=0.28123p ps=1.77u w=1.12u l=0.13u
**devattr s=8512,300 d=8512,300
X2 a_151_412# A2 VDD VDD sg13_lv_pmos ad=0.28123p pd=1.77u as=0.6138p ps=3.5u w=1.12u l=0.13u
**devattr s=8512,300 d=15232,584
X3 Y B1 VSS VSS sg13_lv_nmos ad=0.17413p pd=1.77031u as=0.7698p ps=4.7u w=0.74u l=0.13u
**devattr s=10064,432 d=5624,224
X4 a_253_140# A1 Y VSS sg13_lv_nmos ad=0 pd=0 as=0.17413p ps=1.77031u w=0.74u l=0.13u
**devattr s=5624,224 d=5624,224
X5 VSS A2 a_253_140# VSS sg13_lv_nmos ad=0.7698p pd=4.7u as=0 ps=0 w=0.74u l=0.13u
**devattr s=5624,224 d=10064,432
.ends

.subckt sg13g2_nand2_1 Y VDD A VSS B
X0 a_169_118# B VSS VSS sg13_lv_nmos ad=0 pd=0 as=1.1113p ps=6.77u w=0.74u l=0.13u
**devattr s=10064,432 d=2664,184
X1 Y A a_169_118# VSS sg13_lv_nmos ad=0.17489p pd=1.54705u as=0 ps=0 w=0.74u l=0.13u
**devattr s=2664,184 d=10064,432
X2 Y B VDD VDD sg13_lv_pmos ad=0.26469p pd=2.34148u as=0.7955p ps=5.23u w=1.12u l=0.13u
**devattr s=15232,584 d=8512,300
X3 VDD A Y VDD sg13_lv_pmos ad=0.7955p pd=5.23u as=0.26469p ps=2.34148u w=1.12u l=0.13u
**devattr s=8512,300 d=15232,584
.ends

*.subckt sg13g2_tiehi L_HI VDD VSS
*X0 L_HI a_222_366# a_23_615# VDD sg13_lv_pmos ad=0.2223p pd=2.13u as=0 ps=0 w=1.155u l=0.13u
***devattr s=18628,508 d=15708,598
*X1 a_23_615# a_23_195# a_23_429# VDD sg13_lv_pmos ad=0 pd=0 as=0.41347p ps=4.16u w=0.66u l=0.13u
***devattr s=9768,412 d=18628,508
*X2 a_222_366# a_23_429# a_117_195# VSS sg13_lv_nmos ad=0.26537p pd=2.48u as=0 ps=0 w=0.795u l=0.13u
***devattr s=9228,323 d=10971,456
*X3 a_117_195# a_23_195# a_23_195# VSS sg13_lv_nmos ad=0 pd=0 as=0.1573p ps=1.73u w=0.3u l=0.13u
***devattr s=4080,256 d=9228,323
*.ends

.subckt sg13g2_nand2_2 Y VDD A VSS B
X0 VSS B a_57_115# VSS sg13_lv_nmos ad=0.71615p pd=3.955u as=0.21231p ps=1.985u w=0.72u l=0.13u
**devattr s=10800,438 d=5472,220
X1 a_57_115# B VSS VSS sg13_lv_nmos ad=0.21231p pd=1.985u as=0.71615p ps=3.955u w=0.72u l=0.13u
**devattr s=5472,220 d=5616,222
X2 Y B VDD VDD sg13_lv_pmos ad=0.20217p pd=1.82757u as=0.54397p ps=3.4075u w=1.12u l=0.13u
**devattr s=16128,592 d=8512,300
X3 VDD B Y VDD sg13_lv_pmos ad=0.54397p pd=3.4075u as=0.20217p ps=1.82757u w=1.12u l=0.13u
**devattr s=8512,300 d=8736,302
X4 Y A a_57_115# VSS sg13_lv_nmos ad=0.12996p pd=1.17486u as=0.21231p ps=1.985u w=0.72u l=0.13u
**devattr s=5616,222 d=5472,220
X5 a_57_115# A Y VSS sg13_lv_nmos ad=0.21231p pd=1.985u as=0.12996p ps=1.17486u w=0.72u l=0.13u
**devattr s=5472,220 d=9792,424
X6 Y A VDD VDD sg13_lv_pmos ad=0.20217p pd=1.82757u as=0.54397p ps=3.4075u w=1.12u l=0.13u
**devattr s=8736,302 d=8512,300
X7 VDD A Y VDD sg13_lv_pmos ad=0.54397p pd=3.4075u as=0.20217p ps=1.82757u w=1.12u l=0.13u
**devattr s=8512,300 d=15680,588
.ends

.subckt sg13g2_dlygate4sd3_1 A VDD VSS X
X0 VDD A a_56_118# VDD sg13_lv_pmos ad=0.28906p pd=1.61831u as=0.45247p ps=4.22u w=0.42u l=0.13u
**devattr s=5712,304 d=6092,276
X1 VSS a_326_118# a_438_182# VSS sg13_lv_nmos ad=0.46844p pd=2.5221u as=0.20593p ps=2.19465u w=0.42u l=0.5u
**devattr s=5712,304 d=5704,232
X2 VDD a_326_118# a_438_182# VDD sg13_lv_pmos ad=0.68825p pd=3.85311u as=0.49032p ps=5.22535u w=1u l=0.5u
**devattr s=13600,536 d=9016,306
X3 X a_438_182# VDD VDD sg13_lv_pmos ad=0.51975p pd=3.77548u as=0.77084p ps=4.31548u w=1.12u l=0.13u
**devattr s=9016,306 d=17024,600
X4 a_326_118# a_56_118# VDD VDD sg13_lv_pmos ad=0.56243p pd=4.9507u as=0.68825p ps=3.85311u w=1u l=0.5u
**devattr s=6092,276 d=13600,536
X5 VSS A a_56_118# VSS sg13_lv_nmos ad=0.46844p pd=2.5221u as=0.45247p ps=4.22u w=0.42u l=0.13u
**devattr s=5712,304 d=3192,160
X6 X a_438_182# VSS VSS sg13_lv_nmos ad=0.3434p pd=2.49452u as=0.82534p ps=4.4437u w=0.74u l=0.13u
**devattr s=5704,232 d=10064,432
X7 a_326_118# a_56_118# VSS VSS sg13_lv_nmos ad=0.23622p pd=2.0793u as=0.46844p ps=2.5221u w=0.42u l=0.5u
**devattr s=3192,160 d=5712,304
.ends

.subckt sg13g2_xor2_1 X VDD B A VSS
X0 VSS a_209_168# X VSS sg13_lv_nmos ad=0.76653p pd=4.04132u as=0.20251p ps=1.961u w=0.74u l=0.13u
**devattr s=6512,236 d=12432,464
X1 VDD A a_380_412# VDD sg13_lv_pmos ad=0.76336p pd=4.33827u as=0.15103p ps=1.59667u w=1.12u l=0.13u
**devattr s=15232,584 d=8512,300
X2 a_380_412# B VDD VDD sg13_lv_pmos ad=0.15103p pd=1.59667u as=0.76336p ps=4.33827u w=1.12u l=0.13u
**devattr s=8512,300 d=8512,300
X3 X a_209_168# a_380_412# VDD sg13_lv_pmos ad=0.3065p pd=2.968u as=0.15103p ps=1.59667u w=1.12u l=0.13u
**devattr s=8512,300 d=15232,584
X4 a_177_436# A VDD VDD sg13_lv_pmos ad=0 pd=0 as=0.68157p ps=3.87346u w=1u l=0.13u
**devattr s=14400,544 d=4900,249
X5 a_209_168# A VSS VSS sg13_lv_nmos ad=0.31654p pd=2.81548u as=0.56972p ps=3.00368u w=0.55u l=0.13u
**devattr s=14960,492 d=6985,237
X6 a_209_168# B a_177_436# VDD sg13_lv_pmos ad=0.57552p pd=5.11905u as=0 ps=0 w=1u l=0.13u
**devattr s=4900,249 d=13600,536
X7 VSS B a_209_168# VSS sg13_lv_nmos ad=0.56972p pd=3.00368u as=0.31654p ps=2.81548u w=0.55u l=0.13u
**devattr s=6985,237 d=6098,234
X8 a_474_130# A VSS VSS sg13_lv_nmos ad=0 pd=0 as=0.76653p ps=4.04132u w=0.74u l=0.13u
**devattr s=6098,234 d=3552,196
X9 X B a_474_130# VSS sg13_lv_nmos ad=0.20251p pd=1.961u as=0 ps=0 w=0.74u l=0.13u
**devattr s=3552,196 d=6512,236
.ends

.subckt sg13g2_a22oi_1 Y A2 VDD B1 VSS A1 B2
X0 a_398_96# A1 Y VSS sg13_lv_nmos ad=0 pd=0 as=0.10274p ps=1.04237u w=0.74u l=0.13u
**devattr s=10656,292 d=3848,200
X1 Y B2 a_127_96# VSS sg13_lv_nmos ad=0.10274p pd=1.04237u as=0 ps=0 w=0.74u l=0.13u
**devattr s=5550,223 d=10656,292
X2 VDD A2 a_127_436# VDD sg13_lv_pmos ad=0.98075p pd=5.94u as=0.1629p ps=1.4125u w=1.12u l=0.13u
**devattr s=10976,322 d=15232,584
X3 Y B1 a_127_436# VDD sg13_lv_pmos ad=0.15551p pd=1.57763u as=0.1629p ps=1.4125u w=1.12u l=0.13u
**devattr s=10864,321 d=8512,300
X4 a_127_436# B2 Y VDD sg13_lv_pmos ad=0.1629p pd=1.4125u as=0.15551p ps=1.57763u w=1.12u l=0.13u
**devattr s=8512,300 d=10976,322
X5 a_127_96# B1 VSS VSS sg13_lv_nmos ad=0 pd=0 as=0.8754p ps=5.18u w=0.74u l=0.13u
**devattr s=10212,434 d=5550,223
X6 a_127_436# A1 VDD VDD sg13_lv_pmos ad=0.1629p pd=1.4125u as=0.98075p ps=5.94u w=1.12u l=0.13u
**devattr s=15232,584 d=10864,321
X7 VSS A2 a_398_96# VSS sg13_lv_nmos ad=0.8754p pd=5.18u as=0 ps=0 w=0.74u l=0.13u
**devattr s=3848,200 d=10064,432
.ends

.subckt sg13g2_mux2_2 A1 X S VDD VSS A0
X0 a_559_412# A1 a_382_118# VDD sg13_lv_pmos ad=0 pd=0 as=0.40422p ps=4.24713u w=1u l=0.13u
**devattr s=8900,289 d=11900,319
X1 VDD S a_59_156# VDD sg13_lv_pmos ad=0.52159p pd=3.1748u as=0.95916p ps=9.84432u w=0.84u l=0.13u
**devattr s=11424,472 d=10120,306
X2 VSS S a_59_156# VSS sg13_lv_nmos ad=0.47404p pd=2.67165u as=0.62802p ps=6.44568u w=0.55u l=0.13u
**devattr s=7480,356 d=7578,254
X3 X a_382_118# VSS VSS sg13_lv_nmos ad=0.20627p pd=1.34473u as=0.6378p ps=3.59459u w=0.74u l=0.13u
**devattr s=5920,228 d=8140,258
X4 X a_382_118# VDD VDD sg13_lv_pmos ad=0.31218p pd=2.03527u as=0.69546p ps=4.23307u w=1.12u l=0.13u
**devattr s=8792,304 d=12320,334
X5 a_285_118# S VSS VSS sg13_lv_nmos ad=0 pd=0 as=0.6378p ps=3.59459u w=0.74u l=0.13u
**devattr s=7578,254 d=5254,219
X6 a_285_412# S VDD VDD sg13_lv_pmos ad=0 pd=0 as=0.62094p ps=3.77953u w=1u l=0.13u
**devattr s=10120,306 d=13300,333
X7 VSS a_382_118# X VSS sg13_lv_nmos ad=0.6378p pd=3.59459u as=0.20627p ps=1.34473u w=0.74u l=0.13u
**devattr s=8140,258 d=12580,466
X8 VDD a_382_118# X VDD sg13_lv_pmos ad=0.69546p pd=4.23307u as=0.31218p ps=2.03527u w=1.12u l=0.13u
**devattr s=12320,334 d=19040,618
X9 VSS a_59_156# a_496_118# VSS sg13_lv_nmos ad=0.6378p pd=3.59459u as=0 ps=0 w=0.74u l=0.13u
**devattr s=13468,330 d=5920,228
X10 VDD a_59_156# a_559_412# VDD sg13_lv_pmos ad=0.62094p pd=3.77953u as=0 ps=0 w=1u l=0.13u
**devattr s=11900,319 d=8792,304
X11 a_382_118# A1 a_285_118# VSS sg13_lv_nmos ad=0.29912p pd=3.14287u as=0 ps=0 w=0.74u l=0.13u
**devattr s=5254,219 d=6512,236
X12 a_496_118# A0 a_382_118# VSS sg13_lv_nmos ad=0 pd=0 as=0.29912p ps=3.14287u w=0.74u l=0.13u
**devattr s=6512,236 d=13468,330
X13 a_382_118# A0 a_285_412# VDD sg13_lv_pmos ad=0.40422p pd=4.24713u as=0 ps=0 w=1u l=0.13u
**devattr s=13300,333 d=8900,289
.ends

.subckt sg13g2_inv_1 Y A VSS VDD
X0 Y A VSS VSS sg13_lv_nmos ad=0.23608p pd=2.23591u as=0.9561p ps=5.91u w=0.74u l=0.13u
**devattr s=10360,436 d=10360,436
X1 Y A VDD VDD sg13_lv_pmos ad=0.35732p pd=3.38409u as=1.00622p ps=6.47u w=1.12u l=0.13u
**devattr s=15680,588 d=15680,588
.ends

.subckt sg13g2_nor3_1 A Y B C VDD VSS
X0 a_254_412# B a_165_412# VDD sg13_lv_pmos ad=0 pd=0 as=0 ps=0 w=1.12u l=0.13u
**devattr s=7056,287 d=7280,289
X1 Y C a_254_412# VDD sg13_lv_pmos ad=0.48189p pd=3.54939u as=0 ps=0 w=1.12u l=0.13u
**devattr s=7280,289 d=15232,584
X2 Y A VSS VSS sg13_lv_nmos ad=0.3313p pd=2.4402u as=0.48229p ps=2.98667u w=0.77u l=0.13u
**devattr s=10472,444 d=6776,242
X3 a_165_412# A VDD VDD sg13_lv_pmos ad=0 pd=0 as=1.39475p ps=8.39u w=1.12u l=0.13u
**devattr s=15232,584 d=7056,287
X4 VSS B Y VSS sg13_lv_nmos ad=0.48229p pd=2.98667u as=0.3313p ps=2.4402u w=0.77u l=0.13u
**devattr s=6776,242 d=5852,230
X5 Y C VSS VSS sg13_lv_nmos ad=0.3313p pd=2.4402u as=0.48229p ps=2.98667u w=0.77u l=0.13u
**devattr s=5852,230 d=10472,444
.ends

.subckt sg13g2_a21o_1 B1 X VDD VSS A1 A2
X0 VDD A1 a_358_436# VDD sg13_lv_pmos ad=0.67343p pd=3.97115u as=0.2106p ps=1.97u w=1u l=0.13u
**devattr s=8500,285 d=7600,276
X1 VSS A2 a_494_160# VSS sg13_lv_nmos ad=0.62154p pd=3.98257u as=0 ps=0 w=0.64u l=0.13u
**devattr s=3264,179 d=8704,392
X2 a_358_436# A2 VDD VDD sg13_lv_pmos ad=0.2106p pd=1.97u as=0.67343p ps=3.97115u w=1u l=0.13u
**devattr s=7600,276 d=13600,536
X3 a_115_308# B1 VSS VSS sg13_lv_nmos ad=0.25219p pd=2.22596u as=0.62154p ps=3.98257u w=0.64u l=0.13u
**devattr s=6298,235 d=4864,204
X4 a_494_160# A1 a_115_308# VSS sg13_lv_nmos ad=0 pd=0 as=0.25219p ps=2.22596u w=0.64u l=0.13u
**devattr s=4864,204 d=3264,179
X5 a_358_436# B1 a_115_308# VDD sg13_lv_pmos ad=0.2106p pd=1.97u as=0.39405p ps=3.47807u w=1u l=0.13u
**devattr s=14000,540 d=8500,285
X6 VDD a_115_308# X VDD sg13_lv_pmos ad=0.75424p pd=4.44769u as=0.51288p ps=4.04043u w=1.12u l=0.13u
**devattr s=15232,584 d=15232,584
X7 VSS a_115_308# X VSS sg13_lv_nmos ad=0.71866p pd=4.60485u as=0.33887p ps=2.66957u w=0.74u l=0.13u
**devattr s=9404,432 d=6298,235
.ends

.subckt sg13g2_nor4_1 VSS VDD B C Y A D
X0 Y D a_348_412# VDD sg13_lv_pmos ad=0.36326p pd=2.8851u as=0 ps=0 w=1.12u l=0.13u
**devattr s=9856,312 d=16128,592
X1 a_234_412# B a_150_412# VDD sg13_lv_pmos ad=0 pd=0 as=0 ps=0 w=1.12u l=0.13u
**devattr s=6496,282 d=9856,312
X2 Y A VSS VSS sg13_lv_nmos ad=0.24001p pd=1.90623u as=0.48377p ps=2.925u w=0.74u l=0.13u
**devattr s=10064,432 d=5624,224
X3 a_150_412# A VDD VDD sg13_lv_pmos ad=0 pd=0 as=1.6416p ps=9.52u w=1.12u l=0.13u
**devattr s=15232,584 d=6496,282
X4 VSS B Y VSS sg13_lv_nmos ad=0.48377p pd=2.925u as=0.24001p ps=1.90623u w=0.74u l=0.13u
**devattr s=5624,224 d=5624,224
X5 a_348_412# C a_234_412# VDD sg13_lv_pmos ad=0 pd=0 as=0 ps=0 w=1.12u l=0.13u
**devattr s=9856,312 d=9856,312
X6 Y C VSS VSS sg13_lv_nmos ad=0.24001p pd=1.90623u as=0.48377p ps=2.925u w=0.74u l=0.13u
**devattr s=5624,224 d=5624,224
X7 VSS D Y VSS sg13_lv_nmos ad=0.48377p pd=2.925u as=0.24001p ps=1.90623u w=0.74u l=0.13u
**devattr s=5624,224 d=9503,432
.ends

.subckt sg13g2_nand3_1 VDD Y B C VSS A
X0 Y C VDD VDD sg13_lv_pmos ad=0.39551p pd=2.84371u as=0.55783p ps=3.47667u w=1.12u l=0.13u
**devattr s=15232,584 d=8512,300
X1 VDD B Y VDD sg13_lv_pmos ad=0.55783p pd=3.47667u as=0.39551p ps=2.84371u w=1.12u l=0.13u
**devattr s=8512,300 d=8512,300
X2 Y A VDD VDD sg13_lv_pmos ad=0.39551p pd=2.84371u as=0.55783p ps=3.47667u w=1.12u l=0.13u
**devattr s=8512,300 d=15232,584
X3 a_146_122# C VSS VSS sg13_lv_nmos ad=0 pd=0 as=1.2558p ps=7.16u w=0.74u l=0.13u
**devattr s=11544,452 d=6882,241
X4 a_265_122# B a_146_122# VSS sg13_lv_nmos ad=0 pd=0 as=0 ps=0 w=0.74u l=0.13u
**devattr s=6882,241 d=4366,207
X5 Y A a_265_122# VSS sg13_lv_nmos ad=0.26132p pd=1.87888u as=0 ps=0 w=0.74u l=0.13u
**devattr s=4366,207 d=13172,474
.ends

.subckt sg13g2_or2_1 A VSS B X VDD
X0 X a_22_492# VDD VDD sg13_lv_pmos ad=0.35334p pd=3.66108u as=0.80366p ps=4.75429u w=1.12u l=0.13u
**devattr s=8904,307 d=15904,590
X1 X a_22_492# VSS VSS sg13_lv_nmos ad=0.23346p pd=2.41892u as=0.58886p ps=3.54717u w=0.74u l=0.13u
**devattr s=5876,231 d=10064,432
X2 VSS A a_22_492# VSS sg13_lv_nmos ad=0.43767p pd=2.63641u as=0.23376p ps=2.36727u w=0.55u l=0.13u
**devattr s=4180,186 d=5876,231
X3 VDD A a_116_492# VDD sg13_lv_pmos ad=0.60274p pd=3.56571u as=0 ps=0 w=0.84u l=0.13u
**devattr s=6384,244 d=8904,307
X4 a_116_492# B a_22_492# VDD sg13_lv_pmos ad=0 pd=0 as=0.35701p ps=3.61546u w=0.84u l=0.13u
**devattr s=11424,472 d=6384,244
X5 a_22_492# B VSS VSS sg13_lv_nmos ad=0.23376p pd=2.36727u as=0.43767p ps=2.63641u w=0.55u l=0.13u
**devattr s=7480,356 d=4180,186
.ends

.subckt sg13g2_a21oi_2 Y A2 VDD A1 B1 VSS
X0 VDD A2 a_47_412# VDD sg13_lv_pmos ad=0.5017p pd=2.75u as=0.21233p ps=1.72u w=1.12u l=0.13u
**devattr s=15232,584 d=8512,300
X1 a_47_412# A1 VDD VDD sg13_lv_pmos ad=0.21233p pd=1.72u as=0.5017p ps=2.75u w=1.12u l=0.13u
**devattr s=8512,300 d=8512,300
X2 VDD A1 a_47_412# VDD sg13_lv_pmos ad=0.5017p pd=2.75u as=0.21233p ps=1.72u w=1.12u l=0.13u
**devattr s=8512,300 d=8512,300
X3 a_47_412# A2 VDD VDD sg13_lv_pmos ad=0.21233p pd=1.72u as=0.5017p ps=2.75u w=1.12u l=0.13u
**devattr s=8512,300 d=8512,300
X4 Y B1 a_47_412# VDD sg13_lv_pmos ad=0.20487p pd=1.764u as=0.21233p ps=1.72u w=1.12u l=0.13u
**devattr s=8512,300 d=8512,300
X5 a_47_412# B1 Y VDD sg13_lv_pmos ad=0.21233p pd=1.72u as=0.20487p ps=1.764u w=1.12u l=0.13u
**devattr s=8512,300 d=15232,584
X6 a_141_140# A2 VSS VSS sg13_lv_nmos ad=0.1123p pd=1.0625u as=0.6278p ps=3.72u w=0.74u l=0.13u
**devattr s=10064,432 d=5624,224
X7 Y A1 a_141_140# VSS sg13_lv_nmos ad=0.13536p pd=1.1655u as=0.1123p ps=1.0625u w=0.74u l=0.13u
**devattr s=5624,224 d=5624,224
X8 a_141_140# A1 Y VSS sg13_lv_nmos ad=0.1123p pd=1.0625u as=0.13536p ps=1.1655u w=0.74u l=0.13u
**devattr s=5624,224 d=5624,224
X9 VSS A2 a_141_140# VSS sg13_lv_nmos ad=0.6278p pd=3.72u as=0.1123p ps=1.0625u w=0.74u l=0.13u
**devattr s=5624,224 d=5624,224
X10 Y B1 VSS VSS sg13_lv_nmos ad=0.13536p pd=1.1655u as=0.6278p ps=3.72u w=0.74u l=0.13u
**devattr s=5624,224 d=5624,224
X11 VSS B1 Y VSS sg13_lv_nmos ad=0.6278p pd=3.72u as=0.13536p ps=1.1655u w=0.74u l=0.13u
**devattr s=5624,224 d=10064,432
.ends

.subckt sg13g2_nor2b_2 A B_N VDD Y VSS
X0 Y A a_252_412# VDD sg13_lv_pmos ad=0.2086p pd=1.92938u as=0.16193p ps=1.5325u w=1.12u l=0.13u
**devattr s=8512,300 d=8512,300
X1 a_252_412# A Y VDD sg13_lv_pmos ad=0.16193p pd=1.5325u as=0.2086p ps=1.92938u w=1.12u l=0.13u
**devattr s=8512,300 d=8512,300
X2 VDD a_50_160# a_252_412# VDD sg13_lv_pmos ad=0.77709p pd=4.67358u as=0.16193p ps=1.5325u w=1.12u l=0.13u
**devattr s=8512,300 d=15232,584
X3 VSS B_N a_50_160# VSS sg13_lv_nmos ad=0.41535p pd=2.50909u as=0.23134p ps=2.17756u w=0.64u l=0.13u
**devattr s=8704,392 d=5792,226
X4 Y a_50_160# VSS VSS sg13_lv_nmos ad=0.1341p pd=1.24031u as=0.46726p ps=2.82273u w=0.72u l=0.13u
**devattr s=5792,226 d=5472,220
X5 VSS A Y VSS sg13_lv_nmos ad=0.46726p pd=2.82273u as=0.1341p ps=1.24031u w=0.72u l=0.13u
**devattr s=5472,220 d=5472,220
X6 Y A VSS VSS sg13_lv_nmos ad=0.1341p pd=1.24031u as=0.46726p ps=2.82273u w=0.72u l=0.13u
**devattr s=5472,220 d=5472,220
X7 VSS a_50_160# Y VSS sg13_lv_nmos ad=0.46726p pd=2.82273u as=0.1341p ps=1.24031u w=0.72u l=0.13u
**devattr s=5472,220 d=9792,424
X8 VDD B_N a_50_160# VDD sg13_lv_pmos ad=0.69383p pd=4.17284u as=0.36146p ps=3.40244u w=1u l=0.13u
**devattr s=13600,536 d=9016,306
X9 a_252_412# a_50_160# VDD VDD sg13_lv_pmos ad=0.16193p pd=1.5325u as=0.77709p ps=4.67358u w=1.12u l=0.13u
**devattr s=9016,306 d=8512,300
.ends

.subckt sg13g2_mux4_1 X A1 A2 S0 VDD VSS S1 A0 A3
X0 a_886_118# a_71_118# a_810_118# VSS sg13_lv_nmos ad=0.30763p pd=2.76553u as=0 ps=0 w=0.64u l=0.13u
**devattr s=3200,178 d=7104,239
X1 VDD S0 a_71_118# VDD sg13_lv_pmos ad=0.76301p pd=3.98315u as=1.43855p ps=13.84146u w=1u l=0.13u
**devattr s=13600,536 d=8926,311