* NGSPICE file created from rgb_buffers_parax.ext - technology: ihp-sg13g2

.subckt rgb_buffers_parax VGND VPWR b[0] b[1] b[2] b[3] b[4] b[5] b[6] b[7] db[0]
+ db[1] db[2] db[3] db[4] db[5] db[6] db[7] dg[0] dg[1] dg[2] dg[3] dg[4] dg[5] dg[6]
+ dg[7] dr[0] dr[1] dr[2] dr[3] dr[4] dr[5] dr[6] dr[7] g[0] g[1] g[2] g[3] g[4] g[5]
+ g[6] g[7] r[0] r[1] r[2] r[3] r[4] r[5] r[6] r[7]
X0 b[5].t4 a_490_3864# VGND.t446 VGND.t456 sg13_lv_nmos ad=0.1406p pd=1.12u as=0.1406p ps=1.12u w=0.74u l=0.13u
X1 VGND.t372 VPWR.t443 VGND.t372 VGND.t169 sg13_lv_nmos ad=79.8f pd=0.8u as=0 ps=0 w=0.42u l=1u
X2 VGND.t378 VPWR.t444 VGND.t376 VGND.t377 sg13_lv_nmos ad=0.1428p pd=1.52u as=0 ps=0 w=0.42u l=1u
X3 VPWR.t301 VGND.t600 VPWR.t194 VPWR.t79 sg13_lv_pmos ad=0.34p pd=2.68u as=0 ps=0 w=1u l=1u
X4 a_586_22008# dr[1].t0 VGND.t497 VGND.t559 sg13_lv_nmos ad=0.1406p pd=1.12u as=0.1406p ps=1.12u w=0.74u l=0.13u
X5 a_1066_5376# db[3].t0 VGND.t368 VGND.t371 sg13_lv_nmos ad=0.2553p pd=2.17u as=0.1406p ps=1.12u w=0.74u l=0.13u
X6 VPWR.t235 VGND.t601 VPWR.t235 VPWR.t26 sg13_lv_pmos ad=0.19p pd=1.38u as=0 ps=0 w=1u l=1u
X7 VGND.t380 VPWR.t445 VGND.t380 VGND.t382 sg13_lv_nmos ad=79.8f pd=0.8u as=0 ps=0 w=0.42u l=1u
X8 VPWR.t205 VGND.t602 VPWR.t205 VPWR.t180 sg13_lv_pmos ad=0.19p pd=1.38u as=0 ps=0 w=1u l=1u
X9 VGND.t586 dr[4].t0 a_490_19738# VGND.t154 sg13_lv_nmos ad=0.1406p pd=1.12u as=0.1406p ps=1.12u w=0.74u l=0.13u
X10 a_490_3864# db[5].t0 VPWR.t126 VPWR.t123 sg13_lv_pmos ad=0.2128p pd=1.5u as=0.2128p ps=1.5u w=1.12u l=0.13u
X11 VPWR.t297 VGND.t603 VPWR.t296 VPWR.t35 sg13_lv_pmos ad=0.34p pd=2.68u as=0 ps=0 w=1u l=1u
X12 VGND.t289 dr[6].t0 a_1066_18226# VGND.t290 sg13_lv_nmos ad=0.1406p pd=1.12u as=0.1406p ps=1.12u w=0.74u l=0.13u
X13 b[5].t3 a_490_3864# VGND.t455 VGND.t454 sg13_lv_nmos ad=0.1406p pd=1.12u as=0.2516p ps=2.16u w=0.74u l=0.13u
X14 VGND.t385 VPWR.t446 VGND.t383 VGND.t260 sg13_lv_nmos ad=0.1428p pd=1.52u as=0 ps=0 w=0.42u l=1u
X15 VGND.t386 VPWR.t447 VGND.t386 VGND.t193 sg13_lv_nmos ad=79.8f pd=0.8u as=0 ps=0 w=0.42u l=1u
X16 VGND.t31 a_1066_18226# r[6].t1 VGND.t35 sg13_lv_nmos ad=0.1406p pd=1.12u as=0.1406p ps=1.12u w=0.74u l=0.13u
X17 VPWR.t349 a_1066_5376# b[3].t6 VPWR.t61 sg13_lv_pmos ad=0.2128p pd=1.5u as=0.2128p ps=1.5u w=1.12u l=0.13u
X18 VPWR.t290 VGND.t604 VPWR.t290 VPWR.t26 sg13_lv_pmos ad=0.19p pd=1.38u as=0 ps=0 w=1u l=1u
X19 VGND.t426 VPWR.t448 VGND.t424 VGND.t425 sg13_lv_nmos ad=0.1428p pd=1.52u as=0 ps=0 w=0.42u l=1u
X20 VGND.t240 a_490_18984# r[5].t1 VGND.t242 sg13_lv_nmos ad=0.1406p pd=1.12u as=0.1406p ps=1.12u w=0.74u l=0.13u
X21 VPWR.t386 a_586_22008# r[1].t5 VPWR.t13 sg13_lv_pmos ad=0.2128p pd=1.5u as=0.2128p ps=1.5u w=1.12u l=0.13u
X22 VGND.t33 a_1066_18226# r[6].t0 VGND.t34 sg13_lv_nmos ad=0.1406p pd=1.12u as=0.1406p ps=1.12u w=0.74u l=0.13u
X23 b[3].t7 a_1066_5376# VPWR.t355 VPWR.t61 sg13_lv_pmos ad=0.2128p pd=1.5u as=0.2128p ps=1.5u w=1.12u l=0.13u
X24 VPWR.t316 a_778_6888# b[1].t6 VPWR.t35 sg13_lv_pmos ad=0.2128p pd=1.5u as=0.2128p ps=1.5u w=1.12u l=0.13u
X25 VPWR.t356 a_1066_5376# b[3].t4 VPWR.t61 sg13_lv_pmos ad=0.2128p pd=1.5u as=0.2128p ps=1.5u w=1.12u l=0.13u
X26 VGND.t430 VPWR.t449 VGND.t428 VGND.t429 sg13_lv_nmos ad=0.1428p pd=1.52u as=0 ps=0 w=0.42u l=1u
X27 VPWR.t278 VGND.t605 VPWR.t278 VPWR.t61 sg13_lv_pmos ad=0.19p pd=1.38u as=0 ps=0 w=1u l=1u
X28 VGND.t69 a_490_10666# g[6].t1 VGND.t73 sg13_lv_nmos ad=0.1406p pd=1.12u as=0.1406p ps=1.12u w=0.74u l=0.13u
X29 VGND.t432 VPWR.t450 VGND.t432 VGND.t434 sg13_lv_nmos ad=79.8f pd=0.8u as=0 ps=0 w=0.42u l=1u
X30 g[1].t3 a_490_14448# VGND.t79 VGND.t86 sg13_lv_nmos ad=0.1406p pd=1.12u as=0.1406p ps=1.12u w=0.74u l=0.13u
X31 VPWR.t219 VGND.t606 VPWR.t219 VPWR.t9 sg13_lv_pmos ad=0.19p pd=1.38u as=0 ps=0 w=1u l=1u
X32 VPWR.t217 VGND.t607 VPWR.t217 VPWR.t79 sg13_lv_pmos ad=0.19p pd=1.38u as=0 ps=0 w=1u l=1u
X33 VPWR.t48 a_490_10666# g[6].t5 VPWR.t9 sg13_lv_pmos ad=0.2128p pd=1.5u as=0.2128p ps=1.5u w=1.12u l=0.13u
X34 VGND.t437 VPWR.t451 VGND.t435 VGND.t164 sg13_lv_nmos ad=0.1428p pd=1.52u as=0 ps=0 w=0.42u l=1u
X35 a_490_19738# dr[4].t0 VPWR.t392 VPWR.t0 sg13_lv_pmos ad=0.2128p pd=1.5u as=0.2128p ps=1.5u w=1.12u l=0.13u
X36 b[5].t6 a_490_3864# VPWR.t362 VPWR.t123 sg13_lv_pmos ad=0.2128p pd=1.5u as=0.2128p ps=1.5u w=1.12u l=0.13u
X37 VGND.t570 a_490_13690# g[2].t2 VGND.t572 sg13_lv_nmos ad=0.1406p pd=1.12u as=0.1406p ps=1.12u w=0.74u l=0.13u
X38 b[2].t3 a_490_6130# VGND.t52 VGND.t61 sg13_lv_nmos ad=0.1406p pd=1.12u as=0.1406p ps=1.12u w=0.74u l=0.13u
X39 VPWR.t291 VGND.t608 VPWR.t290 VPWR.t26 sg13_lv_pmos ad=0.34p pd=2.68u as=0 ps=0 w=1u l=1u
X40 VPWR.t85 a_490_22762# r[0].t5 VPWR.t79 sg13_lv_pmos ad=0.2128p pd=1.5u as=0.2128p ps=1.5u w=1.12u l=0.13u
X41 VPWR.t289 VGND.t609 VPWR.t204 VPWR.t9 sg13_lv_pmos ad=0.34p pd=2.68u as=0 ps=0 w=1u l=1u
X42 r[7].t3 a_490_17472# VGND.t323 VGND.t332 sg13_lv_nmos ad=0.1406p pd=1.12u as=0.1406p ps=1.12u w=0.74u l=0.13u
X43 a_490_18984# dr[5].t0 VPWR.t90 VPWR.t17 sg13_lv_pmos ad=0.2128p pd=1.5u as=0.2128p ps=1.5u w=1.12u l=0.13u
X44 VGND.t204 db[7].t0 a_490_2352# VGND.t205 sg13_lv_nmos ad=0.1406p pd=1.12u as=0.1406p ps=1.12u w=0.74u l=0.13u
X45 b[5].t7 a_490_3864# VPWR.t368 VPWR.t123 sg13_lv_pmos ad=0.2128p pd=1.5u as=0.3864p ps=2.93u w=1.12u l=0.13u
X46 a_490_19738# dr[4].t0 VGND.t586 VGND.t152 sg13_lv_nmos ad=0.2553p pd=2.17u as=0.1406p ps=1.12u w=0.74u l=0.13u
X47 VPWR.t57 a_490_14448# g[1].t5 VPWR.t52 sg13_lv_pmos ad=0.2128p pd=1.5u as=0.2128p ps=1.5u w=1.12u l=0.13u
X48 VGND.t306 a_1066_3106# b[6].t2 VGND.t305 sg13_lv_nmos ad=0.1406p pd=1.12u as=0.1406p ps=1.12u w=0.74u l=0.13u
X49 VGND.t440 VPWR.t452 VGND.t438 VGND.t256 sg13_lv_nmos ad=0.1428p pd=1.52u as=0 ps=0 w=0.42u l=1u
X50 r[4].t3 a_490_19738# VGND.t509 VGND.t239 sg13_lv_nmos ad=0.1406p pd=1.12u as=0.1406p ps=1.12u w=0.74u l=0.13u
X51 VGND.t590 dg[0].t0 a_1066_15202# VGND.t591 sg13_lv_nmos ad=0.1406p pd=1.12u as=0.1406p ps=1.12u w=0.74u l=0.13u
X52 b[6].t3 a_1066_3106# VGND.t297 VGND.t304 sg13_lv_nmos ad=0.1406p pd=1.12u as=0.1406p ps=1.12u w=0.74u l=0.13u
X53 VGND.t444 VPWR.t453 VGND.t442 VGND.t443 sg13_lv_nmos ad=0.1428p pd=1.52u as=0 ps=0 w=0.42u l=1u
X54 VGND.t299 a_1066_3106# b[6].t0 VGND.t303 sg13_lv_nmos ad=0.1406p pd=1.12u as=0.1406p ps=1.12u w=0.74u l=0.13u
X55 VGND.t582 a_490_2352# b[7].t1 VGND.t584 sg13_lv_nmos ad=0.1406p pd=1.12u as=0.1406p ps=1.12u w=0.74u l=0.13u
X56 a_1066_3106# db[6].t0 VPWR.t304 VPWR.t123 sg13_lv_pmos ad=0.2128p pd=1.5u as=0.2128p ps=1.5u w=1.12u l=0.13u
X57 a_490_7642# db[0].t0 VGND.t265 VGND.t267 sg13_lv_nmos ad=0.2553p pd=2.17u as=0.1406p ps=1.12u w=0.74u l=0.13u
X58 VGND.t108 a_1066_15202# g[0].t1 VGND.t112 sg13_lv_nmos ad=0.1406p pd=1.12u as=0.1406p ps=1.12u w=0.74u l=0.13u
X59 VPWR.t287 VGND.t610 VPWR.t286 VPWR.t13 sg13_lv_pmos ad=0.34p pd=2.68u as=0 ps=0 w=1u l=1u
X60 r[6].t2 a_1066_18226# VGND.t33 VGND.t32 sg13_lv_nmos ad=0.1406p pd=1.12u as=0.1406p ps=1.12u w=0.74u l=0.13u
X61 b[2].t2 a_490_6130# VGND.t50 VGND.t60 sg13_lv_nmos ad=0.1406p pd=1.12u as=0.1406p ps=1.12u w=0.74u l=0.13u
X62 VGND.t471 VPWR.t454 VGND.t469 VGND.t379 sg13_lv_nmos ad=0.1428p pd=1.52u as=0 ps=0 w=0.42u l=1u
X63 VPWR.t308 a_1066_3106# b[6].t5 VPWR.t123 sg13_lv_pmos ad=0.2128p pd=1.5u as=0.2128p ps=1.5u w=1.12u l=0.13u
X64 VGND.t48 a_490_7642# b[0].t1 VGND.t47 sg13_lv_nmos ad=0.1406p pd=1.12u as=0.1406p ps=1.12u w=0.74u l=0.13u
X65 VGND.t362 a_490_11424# g[5].t1 VGND.t366 sg13_lv_nmos ad=0.1406p pd=1.12u as=0.1406p ps=1.12u w=0.74u l=0.13u
X66 VGND.t475 VPWR.t455 VGND.t473 VGND.t474 sg13_lv_nmos ad=0.1428p pd=1.52u as=0 ps=0 w=0.42u l=1u
X67 VGND.t477 VPWR.t456 VGND.t477 VGND.t479 sg13_lv_nmos ad=79.8f pd=0.8u as=0 ps=0 w=0.42u l=1u
X68 VGND.t110 a_1066_15202# g[0].t0 VGND.t111 sg13_lv_nmos ad=0.1406p pd=1.12u as=0.1406p ps=1.12u w=0.74u l=0.13u
X69 VGND.t480 VPWR.t457 VGND.t480 VGND.t375 sg13_lv_nmos ad=79.8f pd=0.8u as=0 ps=0 w=0.42u l=1u
X70 r[6].t7 a_1066_18226# VPWR.t20 VPWR.t17 sg13_lv_pmos ad=0.2128p pd=1.5u as=0.2128p ps=1.5u w=1.12u l=0.13u
X71 g[2].t7 a_490_13690# VPWR.t417 VPWR.t52 sg13_lv_pmos ad=0.2128p pd=1.5u as=0.2128p ps=1.5u w=1.12u l=0.13u
X72 a_1066_5376# db[3].t0 VPWR.t348 VPWR.t61 sg13_lv_pmos ad=0.3808p pd=2.92u as=0.2128p ps=1.5u w=1.12u l=0.13u
X73 VPWR.t273 VGND.t611 VPWR.t273 VPWR.t91 sg13_lv_pmos ad=0.19p pd=1.38u as=0 ps=0 w=1u l=1u
X74 VGND.t373 VPWR.t443 VGND.t372 VGND.t166 sg13_lv_nmos ad=0.1428p pd=1.52u as=0 ps=0 w=0.42u l=1u
X75 g[6].t3 a_490_10666# VGND.t72 VGND.t71 sg13_lv_nmos ad=0.1406p pd=1.12u as=0.2516p ps=2.16u w=0.74u l=0.13u
X76 g[3].t7 a_1066_12936# VPWR.t328 VPWR.t180 sg13_lv_pmos ad=0.2128p pd=1.5u as=0.2128p ps=1.5u w=1.12u l=0.13u
X77 r[0].t3 a_490_22762# VGND.t116 VGND.t125 sg13_lv_nmos ad=0.1406p pd=1.12u as=0.1406p ps=1.12u w=0.74u l=0.13u
X78 VGND.t83 a_490_14448# g[1].t1 VGND.t85 sg13_lv_nmos ad=0.1406p pd=1.12u as=0.1406p ps=1.12u w=0.74u l=0.13u
X79 g[6].t7 a_490_10666# VPWR.t50 VPWR.t9 sg13_lv_pmos ad=0.2128p pd=1.5u as=0.3864p ps=2.93u w=1.12u l=0.13u
X80 a_1066_4618# db[4].t0 VGND.t92 VGND.t464 sg13_lv_nmos ad=0.1406p pd=1.12u as=0.1406p ps=1.12u w=0.74u l=0.13u
X81 b[2].t7 a_490_6130# VPWR.t37 VPWR.t35 sg13_lv_pmos ad=0.2128p pd=1.5u as=0.2128p ps=1.5u w=1.12u l=0.13u
X82 VPWR.t395 a_490_19738# r[4].t5 VPWR.t0 sg13_lv_pmos ad=0.2128p pd=1.5u as=0.2128p ps=1.5u w=1.12u l=0.13u
X83 VGND.t98 a_1066_4618# b[4].t1 VGND.t99 sg13_lv_nmos ad=0.1406p pd=1.12u as=0.1406p ps=1.12u w=0.74u l=0.13u
X84 VGND.t580 a_490_2352# b[7].t0 VGND.t583 sg13_lv_nmos ad=0.1406p pd=1.12u as=0.1406p ps=1.12u w=0.74u l=0.13u
X85 g[5].t7 a_490_11424# VPWR.t341 VPWR.t9 sg13_lv_pmos ad=0.2128p pd=1.5u as=0.2128p ps=1.5u w=1.12u l=0.13u
X86 VPWR.t284 VGND.t612 VPWR.t179 VPWR.t91 sg13_lv_pmos ad=0.34p pd=2.68u as=0 ps=0 w=1u l=1u
X87 VPWR.t374 db[4].t0 a_1066_4618# VPWR.t61 sg13_lv_pmos ad=0.2128p pd=1.5u as=0.2128p ps=1.5u w=1.12u l=0.13u
X88 a_490_13690# dg[2].t0 VGND.t563 VGND.t595 sg13_lv_nmos ad=0.1406p pd=1.12u as=0.1406p ps=1.12u w=0.74u l=0.13u
X89 VGND.t45 a_490_7642# b[0].t0 VGND.t46 sg13_lv_nmos ad=0.1406p pd=1.12u as=0.1406p ps=1.12u w=0.74u l=0.13u
X90 VPWR.t120 a_490_18984# r[5].t5 VPWR.t17 sg13_lv_pmos ad=0.2128p pd=1.5u as=0.2128p ps=1.5u w=1.12u l=0.13u
X91 VGND.t598 dr[7].t0 a_490_17472# VGND.t599 sg13_lv_nmos ad=0.1406p pd=1.12u as=0.1406p ps=1.12u w=0.74u l=0.13u
X92 VPWR.t282 VGND.t613 VPWR.t193 VPWR.t52 sg13_lv_pmos ad=0.34p pd=2.68u as=0 ps=0 w=1u l=1u
X93 b[4].t6 a_1066_4618# VPWR.t62 VPWR.t61 sg13_lv_pmos ad=0.2128p pd=1.5u as=0.2128p ps=1.5u w=1.12u l=0.13u
X94 a_1066_12178# dg[4].t0 VGND.t507 VGND.t506 sg13_lv_nmos ad=0.1406p pd=1.12u as=0.1406p ps=1.12u w=0.74u l=0.13u
X95 VGND.t486 VPWR.t458 VGND.t484 VGND.t485 sg13_lv_nmos ad=0.1428p pd=1.52u as=0 ps=0 w=0.42u l=1u
X96 VGND.t487 VPWR.t459 VGND.t487 VGND.t422 sg13_lv_nmos ad=79.8f pd=0.8u as=0 ps=0 w=0.42u l=1u
X97 VGND.t519 VPWR.t460 VGND.t517 VGND.t518 sg13_lv_nmos ad=0.1428p pd=1.52u as=0 ps=0 w=0.42u l=1u
X98 VPWR.t260 VGND.t614 VPWR.t260 VPWR.t106 sg13_lv_pmos ad=0.19p pd=1.38u as=0 ps=0 w=1u l=1u
X99 g[4].t3 a_1066_12178# VGND.t545 VGND.t555 sg13_lv_nmos ad=0.1406p pd=1.12u as=0.1406p ps=1.12u w=0.74u l=0.13u
X100 g[1].t7 a_490_14448# VPWR.t59 VPWR.t52 sg13_lv_pmos ad=0.2128p pd=1.5u as=0.3864p ps=2.93u w=1.12u l=0.13u
X101 VPWR.t279 VGND.t615 VPWR.t278 VPWR.t61 sg13_lv_pmos ad=0.34p pd=2.68u as=0 ps=0 w=1u l=1u
X102 VPWR.t435 dg[0].t0 a_1066_15202# VPWR.t70 sg13_lv_pmos ad=0.2128p pd=1.5u as=0.2128p ps=1.5u w=1.12u l=0.13u
X103 g[4].t2 a_1066_12178# VGND.t554 VGND.t553 sg13_lv_nmos ad=0.1406p pd=1.12u as=0.2516p ps=2.16u w=0.74u l=0.13u
X104 a_1066_3106# db[6].t0 VGND.t347 VGND.t349 sg13_lv_nmos ad=0.2553p pd=2.17u as=0.1406p ps=1.12u w=0.74u l=0.13u
X105 b[4].t7 a_1066_4618# VPWR.t63 VPWR.t61 sg13_lv_pmos ad=0.2128p pd=1.5u as=0.2128p ps=1.5u w=1.12u l=0.13u
X106 VPWR.t181 VGND.t616 VPWR.t181 VPWR.t180 sg13_lv_pmos ad=0.19p pd=1.38u as=0 ps=0 w=1u l=1u
X107 a_490_7642# db[0].t0 VPWR.t127 VPWR.t26 sg13_lv_pmos ad=0.3808p pd=2.92u as=0.2128p ps=1.5u w=1.12u l=0.13u
X108 VPWR.t75 a_1066_15202# g[0].t5 VPWR.t70 sg13_lv_pmos ad=0.2128p pd=1.5u as=0.2128p ps=1.5u w=1.12u l=0.13u
X109 b[2].t6 a_490_6130# VPWR.t36 VPWR.t35 sg13_lv_pmos ad=0.2128p pd=1.5u as=0.2128p ps=1.5u w=1.12u l=0.13u
X110 g[0].t2 a_1066_15202# VGND.t110 VGND.t109 sg13_lv_nmos ad=0.1406p pd=1.12u as=0.1406p ps=1.12u w=0.74u l=0.13u
X111 VPWR.t34 a_490_7642# b[0].t5 VPWR.t26 sg13_lv_pmos ad=0.2128p pd=1.5u as=0.2128p ps=1.5u w=1.12u l=0.13u
X112 VGND.t292 dr[3].t0 a_1066_20496# VGND.t22 sg13_lv_nmos ad=0.1406p pd=1.12u as=0.1406p ps=1.12u w=0.74u l=0.13u
X113 r[7].t7 a_490_17472# VPWR.t319 VPWR.t147 sg13_lv_pmos ad=0.2128p pd=1.5u as=0.2128p ps=1.5u w=1.12u l=0.13u
X114 VPWR.t24 a_1066_18226# r[6].t7 VPWR.t17 sg13_lv_pmos ad=0.2128p pd=1.5u as=0.2128p ps=1.5u w=1.12u l=0.13u
X115 VPWR.t76 a_1066_15202# g[0].t4 VPWR.t70 sg13_lv_pmos ad=0.2128p pd=1.5u as=0.2128p ps=1.5u w=1.12u l=0.13u
X116 a_490_2352# db[7].t0 VPWR.t94 VPWR.t91 sg13_lv_pmos ad=0.2128p pd=1.5u as=0.2128p ps=1.5u w=1.12u l=0.13u
X117 g[5].t3 a_490_11424# VGND.t365 VGND.t364 sg13_lv_nmos ad=0.1406p pd=1.12u as=0.2516p ps=2.16u w=0.74u l=0.13u
X118 VGND.t521 VPWR.t461 VGND.t521 VGND.t523 sg13_lv_nmos ad=79.8f pd=0.8u as=0 ps=0 w=0.42u l=1u
X119 VGND.t8 a_1066_20496# r[3].t1 VGND.t12 sg13_lv_nmos ad=0.1406p pd=1.12u as=0.1406p ps=1.12u w=0.74u l=0.13u
X120 VPWR.t22 a_1066_18226# r[6].t4 VPWR.t17 sg13_lv_pmos ad=0.2128p pd=1.5u as=0.2128p ps=1.5u w=1.12u l=0.13u
X121 VPWR.t419 a_490_13690# g[2].t5 VPWR.t52 sg13_lv_pmos ad=0.2128p pd=1.5u as=0.2128p ps=1.5u w=1.12u l=0.13u
X122 VPWR.t332 a_1066_12936# g[3].t7 VPWR.t180 sg13_lv_pmos ad=0.2128p pd=1.5u as=0.2128p ps=1.5u w=1.12u l=0.13u
X123 a_1066_5376# db[3].t0 VGND.t370 VGND.t369 sg13_lv_nmos ad=0.1406p pd=1.12u as=0.1406p ps=1.12u w=0.74u l=0.13u
X124 VGND.t403 a_1066_5376# b[3].t1 VGND.t404 sg13_lv_nmos ad=0.1406p pd=1.12u as=0.1406p ps=1.12u w=0.74u l=0.13u
X125 VGND.t10 a_1066_20496# r[3].t0 VGND.t11 sg13_lv_nmos ad=0.1406p pd=1.12u as=0.1406p ps=1.12u w=0.74u l=0.13u
X126 VPWR.t330 a_1066_12936# g[3].t4 VPWR.t180 sg13_lv_pmos ad=0.2128p pd=1.5u as=0.2128p ps=1.5u w=1.12u l=0.13u
X127 VGND.t501 a_586_22008# r[1].t1 VGND.t502 sg13_lv_nmos ad=0.1406p pd=1.12u as=0.1406p ps=1.12u w=0.74u l=0.13u
X128 VGND.t391 db[1].t0 a_778_6888# VGND.t392 sg13_lv_nmos ad=0.1406p pd=1.12u as=0.1406p ps=1.12u w=0.74u l=0.13u
X129 VGND.t17 a_490_10666# g[6].t0 VGND.t70 sg13_lv_nmos ad=0.1406p pd=1.12u as=0.1406p ps=1.12u w=0.74u l=0.13u
X130 VGND.t538 dr[0].t0 a_490_22762# VGND.t539 sg13_lv_nmos ad=0.1406p pd=1.12u as=0.1406p ps=1.12u w=0.74u l=0.13u
X131 a_490_14448# dg[1].t0 VGND.t75 VGND.t209 sg13_lv_nmos ad=0.1406p pd=1.12u as=0.1406p ps=1.12u w=0.74u l=0.13u
X132 VPWR.t198 VGND.t617 VPWR.t198 VPWR.t79 sg13_lv_pmos ad=0.19p pd=1.38u as=0 ps=0 w=1u l=1u
X133 VGND.t21 dr[2].t0 a_1066_21250# VGND.t22 sg13_lv_nmos ad=0.1406p pd=1.12u as=0.1406p ps=1.12u w=0.74u l=0.13u
X134 VPWR.t12 a_490_10666# g[6].t4 VPWR.t9 sg13_lv_pmos ad=0.2128p pd=1.5u as=0.2128p ps=1.5u w=1.12u l=0.13u
X135 a_1066_12936# dg[3].t0 VGND.t336 VGND.t460 sg13_lv_nmos ad=0.1406p pd=1.12u as=0.1406p ps=1.12u w=0.74u l=0.13u
X136 a_1066_20496# dr[3].t0 VPWR.t2 VPWR.t0 sg13_lv_pmos ad=0.2128p pd=1.5u as=0.2128p ps=1.5u w=1.12u l=0.13u
X137 a_490_17472# dr[7].t0 VGND.t598 VGND.t597 sg13_lv_nmos ad=0.2553p pd=2.17u as=0.1406p ps=1.12u w=0.74u l=0.13u
X138 VPWR.t32 a_490_7642# b[0].t4 VPWR.t26 sg13_lv_pmos ad=0.2128p pd=1.5u as=0.2128p ps=1.5u w=1.12u l=0.13u
X139 VGND.t214 a_1066_21250# r[2].t1 VGND.t12 sg13_lv_nmos ad=0.1406p pd=1.12u as=0.1406p ps=1.12u w=0.74u l=0.13u
X140 VGND.t568 a_490_13690# g[2].t0 VGND.t571 sg13_lv_nmos ad=0.1406p pd=1.12u as=0.1406p ps=1.12u w=0.74u l=0.13u
X141 g[3].t3 a_1066_12936# VGND.t334 VGND.t345 sg13_lv_nmos ad=0.1406p pd=1.12u as=0.1406p ps=1.12u w=0.74u l=0.13u
X142 r[3].t7 a_1066_20496# VPWR.t1 VPWR.t0 sg13_lv_pmos ad=0.2128p pd=1.5u as=0.2128p ps=1.5u w=1.12u l=0.13u
X143 VGND.t524 VPWR.t462 VGND.t524 VGND.t197 sg13_lv_nmos ad=79.8f pd=0.8u as=0 ps=0 w=0.42u l=1u
X144 VPWR.t338 dg[5].t0 a_490_11424# VPWR.t9 sg13_lv_pmos ad=0.2128p pd=1.5u as=0.2128p ps=1.5u w=1.12u l=0.13u
X145 r[1].t7 a_586_22008# VPWR.t379 VPWR.t13 sg13_lv_pmos ad=0.2128p pd=1.5u as=0.2128p ps=1.5u w=1.12u l=0.13u
X146 r[5].t3 a_490_18984# VGND.t232 VGND.t241 sg13_lv_nmos ad=0.1406p pd=1.12u as=0.1406p ps=1.12u w=0.74u l=0.13u
X147 r[7].t2 a_490_17472# VGND.t321 VGND.t331 sg13_lv_nmos ad=0.1406p pd=1.12u as=0.1406p ps=1.12u w=0.74u l=0.13u
X148 b[7].t7 a_490_2352# VPWR.t423 VPWR.t91 sg13_lv_pmos ad=0.2128p pd=1.5u as=0.2128p ps=1.5u w=1.12u l=0.13u
X149 VPWR.t166 VGND.t618 VPWR.t166 VPWR.t140 sg13_lv_pmos ad=0.19p pd=1.38u as=0 ps=0 w=1u l=1u
X150 VGND.t215 a_1066_21250# r[2].t0 VGND.t11 sg13_lv_nmos ad=0.1406p pd=1.12u as=0.1406p ps=1.12u w=0.74u l=0.13u
X151 g[3].t2 a_1066_12936# VGND.t344 VGND.t343 sg13_lv_nmos ad=0.1406p pd=1.12u as=0.2516p ps=2.16u w=0.74u l=0.13u
X152 VGND.t529 VPWR.t463 VGND.t528 VGND.t527 sg13_lv_nmos ad=0.1428p pd=1.52u as=0 ps=0 w=0.42u l=1u
X153 r[1].t6 a_586_22008# VPWR.t384 VPWR.t13 sg13_lv_pmos ad=0.2128p pd=1.5u as=0.3864p ps=2.93u w=1.12u l=0.13u
X154 r[3].t6 a_1066_20496# VPWR.t7 VPWR.t0 sg13_lv_pmos ad=0.2128p pd=1.5u as=0.3864p ps=2.93u w=1.12u l=0.13u
X155 VPWR.t274 VGND.t619 VPWR.t273 VPWR.t91 sg13_lv_pmos ad=0.34p pd=2.68u as=0 ps=0 w=1u l=1u
X156 VGND.t246 db[5].t0 a_490_3864# VGND.t247 sg13_lv_nmos ad=0.1406p pd=1.12u as=0.1406p ps=1.12u w=0.74u l=0.13u
X157 VPWR.t388 dg[4].t0 a_1066_12178# VPWR.t180 sg13_lv_pmos ad=0.2128p pd=1.5u as=0.2128p ps=1.5u w=1.12u l=0.13u
X158 a_1066_18226# dr[6].t0 VGND.t289 VGND.t288 sg13_lv_nmos ad=0.2553p pd=2.17u as=0.1406p ps=1.12u w=0.74u l=0.13u
X159 VPWR.t58 a_490_14448# g[1].t4 VPWR.t52 sg13_lv_pmos ad=0.2128p pd=1.5u as=0.2128p ps=1.5u w=1.12u l=0.13u
X160 b[7].t6 a_490_2352# VPWR.t429 VPWR.t91 sg13_lv_pmos ad=0.2128p pd=1.5u as=0.3864p ps=2.93u w=1.12u l=0.13u
X161 VPWR.t111 a_1066_9912# g[7].t4 VPWR.t106 sg13_lv_pmos ad=0.2128p pd=1.5u as=0.2128p ps=1.5u w=1.12u l=0.13u
X162 VPWR.t408 a_1066_12178# g[4].t5 VPWR.t180 sg13_lv_pmos ad=0.2128p pd=1.5u as=0.2128p ps=1.5u w=1.12u l=0.13u
X163 VPWR.t272 VGND.t620 VPWR.t201 VPWR.t147 sg13_lv_pmos ad=0.34p pd=2.68u as=0 ps=0 w=1u l=1u
X164 g[0].t6 a_1066_15202# VPWR.t76 VPWR.t70 sg13_lv_pmos ad=0.2128p pd=1.5u as=0.2128p ps=1.5u w=1.12u l=0.13u
X165 g[7].t7 a_1066_9912# VPWR.t113 VPWR.t106 sg13_lv_pmos ad=0.2128p pd=1.5u as=0.3864p ps=2.93u w=1.12u l=0.13u
X166 r[0].t7 a_490_22762# VPWR.t80 VPWR.t79 sg13_lv_pmos ad=0.2128p pd=1.5u as=0.2128p ps=1.5u w=1.12u l=0.13u
X167 VGND.t451 a_490_3864# b[5].t4 VGND.t453 sg13_lv_nmos ad=0.1406p pd=1.12u as=0.1406p ps=1.12u w=0.74u l=0.13u
X168 VPWR.t409 a_1066_12178# g[4].t4 VPWR.t180 sg13_lv_pmos ad=0.2128p pd=1.5u as=0.2128p ps=1.5u w=1.12u l=0.13u
X169 VPWR.t352 db[1].t0 a_778_6888# VPWR.t35 sg13_lv_pmos ad=0.2128p pd=1.5u as=0.2128p ps=1.5u w=1.12u l=0.13u
X170 b[1].t3 a_778_6888# VGND.t308 VGND.t319 sg13_lv_nmos ad=0.1406p pd=1.12u as=0.1406p ps=1.12u w=0.74u l=0.13u
X171 VPWR.t270 VGND.t621 VPWR.t173 VPWR.t17 sg13_lv_pmos ad=0.34p pd=2.68u as=0 ps=0 w=1u l=1u
X172 VGND.t532 VPWR.t464 VGND.t531 VGND.t530 sg13_lv_nmos ad=0.1428p pd=1.52u as=0 ps=0 w=0.42u l=1u
X173 VPWR.t441 dr[7].t0 a_490_17472# VPWR.t147 sg13_lv_pmos ad=0.2128p pd=1.5u as=0.2128p ps=1.5u w=1.12u l=0.13u
X174 r[3].t2 a_1066_20496# VGND.t10 VGND.t9 sg13_lv_nmos ad=0.1406p pd=1.12u as=0.1406p ps=1.12u w=0.74u l=0.13u
X175 VGND.t354 a_490_11424# g[5].t0 VGND.t363 sg13_lv_nmos ad=0.1406p pd=1.12u as=0.1406p ps=1.12u w=0.74u l=0.13u
X176 VGND.t535 VPWR.t465 VGND.t533 VGND.t476 sg13_lv_nmos ad=0.1428p pd=1.52u as=0 ps=0 w=0.42u l=1u
X177 r[1].t3 a_586_22008# VGND.t501 VGND.t500 sg13_lv_nmos ad=0.1406p pd=1.12u as=0.1406p ps=1.12u w=0.74u l=0.13u
X178 VPWR.t268 VGND.t622 VPWR.t197 VPWR.t70 sg13_lv_pmos ad=0.34p pd=2.68u as=0 ps=0 w=1u l=1u
X179 VPWR.t266 VGND.t623 VPWR.t169 VPWR.t0 sg13_lv_pmos ad=0.34p pd=2.68u as=0 ps=0 w=1u l=1u
X180 VGND.t178 VPWR.t466 VGND.t178 VGND.t180 sg13_lv_nmos ad=79.8f pd=0.8u as=0 ps=0 w=0.42u l=1u
X181 a_490_13690# dg[2].t0 VPWR.t415 VPWR.t52 sg13_lv_pmos ad=0.2128p pd=1.5u as=0.2128p ps=1.5u w=1.12u l=0.13u
X182 VGND.t488 VPWR.t459 VGND.t487 VGND.t419 sg13_lv_nmos ad=0.1428p pd=1.52u as=0 ps=0 w=0.42u l=1u
X183 a_490_22762# dr[0].t0 VGND.t538 VGND.t537 sg13_lv_nmos ad=0.2553p pd=2.17u as=0.1406p ps=1.12u w=0.74u l=0.13u
X184 VPWR.t239 VGND.t624 VPWR.t239 VPWR.t123 sg13_lv_pmos ad=0.19p pd=1.38u as=0 ps=0 w=1u l=1u
X185 VPWR.t263 VGND.t625 VPWR.t196 VPWR.t13 sg13_lv_pmos ad=0.34p pd=2.68u as=0 ps=0 w=1u l=1u
X186 VPWR.t261 VGND.t626 VPWR.t260 VPWR.t106 sg13_lv_pmos ad=0.34p pd=2.68u as=0 ps=0 w=1u l=1u
X187 VGND.t511 a_490_19738# r[4].t0 VGND.t238 sg13_lv_nmos ad=0.1406p pd=1.12u as=0.1406p ps=1.12u w=0.74u l=0.13u
X188 VGND.t182 VPWR.t467 VGND.t182 VGND.t184 sg13_lv_nmos ad=79.8f pd=0.8u as=0 ps=0 w=0.42u l=1u
X189 VPWR.t259 VGND.t627 VPWR.t258 VPWR.t35 sg13_lv_pmos ad=0.34p pd=2.68u as=0 ps=0 w=1u l=1u
X190 r[0].t2 a_490_22762# VGND.t114 VGND.t124 sg13_lv_nmos ad=0.1406p pd=1.12u as=0.1406p ps=1.12u w=0.74u l=0.13u
X191 VGND.t81 a_490_14448# g[1].t3 VGND.t84 sg13_lv_nmos ad=0.1406p pd=1.12u as=0.1406p ps=1.12u w=0.74u l=0.13u
X192 VGND.t186 VPWR.t468 VGND.t186 VGND.t188 sg13_lv_nmos ad=79.8f pd=0.8u as=0 ps=0 w=0.42u l=1u
X193 VPWR.t15 dr[2].t0 a_1066_21250# VPWR.t13 sg13_lv_pmos ad=0.2128p pd=1.5u as=0.2128p ps=1.5u w=1.12u l=0.13u
X194 a_1066_9912# dg[7].t0 VGND.t221 VGND.t543 sg13_lv_nmos ad=0.1406p pd=1.12u as=0.1406p ps=1.12u w=0.74u l=0.13u
X195 a_490_11424# dg[5].t0 VPWR.t338 VPWR.t9 sg13_lv_pmos ad=0.3808p pd=2.92u as=0.2128p ps=1.5u w=1.12u l=0.13u
X196 VPWR.t124 db[5].t0 a_490_3864# VPWR.t123 sg13_lv_pmos ad=0.2128p pd=1.5u as=0.2128p ps=1.5u w=1.12u l=0.13u
X197 VPWR.t102 a_1066_21250# r[2].t5 VPWR.t13 sg13_lv_pmos ad=0.2128p pd=1.5u as=0.2128p ps=1.5u w=1.12u l=0.13u
X198 g[7].t3 a_1066_9912# VGND.t219 VGND.t230 sg13_lv_nmos ad=0.1406p pd=1.12u as=0.1406p ps=1.12u w=0.74u l=0.13u
X199 r[2].t2 a_1066_21250# VGND.t215 VGND.t9 sg13_lv_nmos ad=0.1406p pd=1.12u as=0.1406p ps=1.12u w=0.74u l=0.13u
X200 VGND.t449 a_490_3864# b[5].t3 VGND.t452 sg13_lv_nmos ad=0.1406p pd=1.12u as=0.1406p ps=1.12u w=0.74u l=0.13u
X201 VGND.t192 VPWR.t469 VGND.t190 VGND.t191 sg13_lv_nmos ad=0.1428p pd=1.52u as=0 ps=0 w=0.42u l=1u
X202 g[5].t6 a_490_11424# VPWR.t340 VPWR.t9 sg13_lv_pmos ad=0.2128p pd=1.5u as=0.2128p ps=1.5u w=1.12u l=0.13u
X203 VPWR.t103 a_1066_21250# r[2].t4 VPWR.t13 sg13_lv_pmos ad=0.2128p pd=1.5u as=0.2128p ps=1.5u w=1.12u l=0.13u
X204 g[7].t2 a_1066_9912# VGND.t229 VGND.t228 sg13_lv_nmos ad=0.1406p pd=1.12u as=0.2516p ps=2.16u w=0.74u l=0.13u
X205 VGND.t196 VPWR.t470 VGND.t194 VGND.t195 sg13_lv_nmos ad=0.1428p pd=1.52u as=0 ps=0 w=0.42u l=1u
X206 a_1066_5376# db[3].t0 VPWR.t349 VPWR.t61 sg13_lv_pmos ad=0.2128p pd=1.5u as=0.2128p ps=1.5u w=1.12u l=0.13u
X207 VGND.t153 dr[5].t0 a_490_18984# VGND.t154 sg13_lv_nmos ad=0.1406p pd=1.12u as=0.1406p ps=1.12u w=0.74u l=0.13u
X208 VPWR.t257 VGND.t628 VPWR.t148 VPWR.t147 sg13_lv_pmos ad=0.34p pd=2.68u as=0 ps=0 w=1u l=1u
X209 VPWR.t365 a_490_3864# b[5].t6 VPWR.t123 sg13_lv_pmos ad=0.2128p pd=1.5u as=0.2128p ps=1.5u w=1.12u l=0.13u
X210 VGND.t183 VPWR.t467 VGND.t182 VGND.t181 sg13_lv_nmos ad=0.1428p pd=1.52u as=0 ps=0 w=0.42u l=1u
X211 VPWR.t357 a_1066_5376# b[3].t7 VPWR.t61 sg13_lv_pmos ad=0.2128p pd=1.5u as=0.2128p ps=1.5u w=1.12u l=0.13u
X212 a_1066_15202# dg[0].t0 VGND.t590 VGND.t589 sg13_lv_nmos ad=0.2553p pd=2.17u as=0.1406p ps=1.12u w=0.74u l=0.13u
X213 VPWR.t229 VGND.t629 VPWR.t229 VPWR.t106 sg13_lv_pmos ad=0.19p pd=1.38u as=0 ps=0 w=1u l=1u
X214 b[1].t7 a_778_6888# VPWR.t316 VPWR.t35 sg13_lv_pmos ad=0.2128p pd=1.5u as=0.2128p ps=1.5u w=1.12u l=0.13u
X215 g[4].t6 a_1066_12178# VPWR.t409 VPWR.t180 sg13_lv_pmos ad=0.2128p pd=1.5u as=0.2128p ps=1.5u w=1.12u l=0.13u
X216 r[4].t7 a_490_19738# VPWR.t390 VPWR.t0 sg13_lv_pmos ad=0.2128p pd=1.5u as=0.2128p ps=1.5u w=1.12u l=0.13u
X217 VGND.t200 VPWR.t471 VGND.t198 VGND.t199 sg13_lv_nmos ad=0.1428p pd=1.52u as=0 ps=0 w=0.42u l=1u
X218 VPWR.t254 VGND.t630 VPWR.t143 VPWR.t70 sg13_lv_pmos ad=0.34p pd=2.68u as=0 ps=0 w=1u l=1u
X219 VPWR.t153 VGND.t631 VPWR.t153 VPWR.t140 sg13_lv_pmos ad=0.19p pd=1.38u as=0 ps=0 w=1u l=1u
X220 r[1].t2 a_586_22008# VGND.t491 VGND.t499 sg13_lv_nmos ad=0.1406p pd=1.12u as=0.1406p ps=1.12u w=0.74u l=0.13u
X221 a_490_17472# dr[7].t0 VPWR.t441 VPWR.t147 sg13_lv_pmos ad=0.3808p pd=2.92u as=0.2128p ps=1.5u w=1.12u l=0.13u
X222 a_490_6130# db[2].t0 VGND.t466 VGND.t468 sg13_lv_nmos ad=0.2553p pd=2.17u as=0.1406p ps=1.12u w=0.74u l=0.13u
X223 VPWR.t399 dr[0].t0 a_490_22762# VPWR.t79 sg13_lv_pmos ad=0.2128p pd=1.5u as=0.2128p ps=1.5u w=1.12u l=0.13u
X224 VGND.t156 VPWR.t472 VGND.t156 VGND.t158 sg13_lv_nmos ad=79.8f pd=0.8u as=0 ps=0 w=0.42u l=1u
X225 VGND.t59 a_490_6130# b[2].t3 VGND.t58 sg13_lv_nmos ad=0.1406p pd=1.12u as=0.1406p ps=1.12u w=0.74u l=0.13u
X226 r[5].t7 a_490_18984# VPWR.t115 VPWR.t17 sg13_lv_pmos ad=0.2128p pd=1.5u as=0.2128p ps=1.5u w=1.12u l=0.13u
X227 r[7].t6 a_490_17472# VPWR.t318 VPWR.t147 sg13_lv_pmos ad=0.2128p pd=1.5u as=0.2128p ps=1.5u w=1.12u l=0.13u
X228 VPWR.t251 VGND.t632 VPWR.t146 VPWR.t106 sg13_lv_pmos ad=0.34p pd=2.68u as=0 ps=0 w=1u l=1u
X229 VGND.t161 VPWR.t473 VGND.t159 VGND.t142 sg13_lv_nmos ad=0.1428p pd=1.52u as=0 ps=0 w=0.42u l=1u
X230 VGND.t165 VPWR.t474 VGND.t163 VGND.t164 sg13_lv_nmos ad=0.1428p pd=1.52u as=0 ps=0 w=0.42u l=1u
X231 VPWR.t249 VGND.t633 VPWR.t188 VPWR.t0 sg13_lv_pmos ad=0.34p pd=2.68u as=0 ps=0 w=1u l=1u
X232 VPWR.t418 a_490_13690# g[2].t7 VPWR.t52 sg13_lv_pmos ad=0.2128p pd=1.5u as=0.2128p ps=1.5u w=1.12u l=0.13u
X233 VGND.t557 dr[1].t0 a_586_22008# VGND.t558 sg13_lv_nmos ad=0.1406p pd=1.12u as=0.1406p ps=1.12u w=0.74u l=0.13u
X234 VGND.t167 VPWR.t475 VGND.t167 VGND.t169 sg13_lv_nmos ad=79.8f pd=0.8u as=0 ps=0 w=0.42u l=1u
X235 VPWR.t247 VGND.t634 VPWR.t185 VPWR.t17 sg13_lv_pmos ad=0.34p pd=2.68u as=0 ps=0 w=1u l=1u
X236 r[4].t2 a_490_19738# VGND.t513 VGND.t236 sg13_lv_nmos ad=0.1406p pd=1.12u as=0.2516p ps=2.16u w=0.74u l=0.13u
X237 VPWR.t364 a_490_3864# b[5].t7 VPWR.t123 sg13_lv_pmos ad=0.2128p pd=1.5u as=0.2128p ps=1.5u w=1.12u l=0.13u
X238 VPWR.t175 VGND.t635 VPWR.t175 VPWR.t147 sg13_lv_pmos ad=0.19p pd=1.38u as=0 ps=0 w=1u l=1u
X239 VPWR.t380 a_586_22008# r[1].t7 VPWR.t13 sg13_lv_pmos ad=0.2128p pd=1.5u as=0.2128p ps=1.5u w=1.12u l=0.13u
X240 a_1066_3106# db[6].t0 VGND.t306 VGND.t348 sg13_lv_nmos ad=0.1406p pd=1.12u as=0.1406p ps=1.12u w=0.74u l=0.13u
X241 VGND.t301 a_1066_3106# b[6].t3 VGND.t302 sg13_lv_nmos ad=0.1406p pd=1.12u as=0.1406p ps=1.12u w=0.74u l=0.13u
X242 VGND.t157 VPWR.t472 VGND.t156 VGND.t155 sg13_lv_nmos ad=0.1428p pd=1.52u as=0 ps=0 w=0.42u l=1u
X243 r[2].t6 a_1066_21250# VPWR.t103 VPWR.t13 sg13_lv_pmos ad=0.2128p pd=1.5u as=0.2128p ps=1.5u w=1.12u l=0.13u
X244 b[7].t3 a_490_2352# VGND.t582 VGND.t581 sg13_lv_nmos ad=0.1406p pd=1.12u as=0.1406p ps=1.12u w=0.74u l=0.13u
X245 a_490_18984# dr[5].t0 VGND.t153 VGND.t152 sg13_lv_nmos ad=0.2553p pd=2.17u as=0.1406p ps=1.12u w=0.74u l=0.13u
X246 VPWR.t171 VGND.t636 VPWR.t171 VPWR.t70 sg13_lv_pmos ad=0.19p pd=1.38u as=0 ps=0 w=1u l=1u
X247 VPWR.t334 db[6].t0 a_1066_3106# VPWR.t123 sg13_lv_pmos ad=0.2128p pd=1.5u as=0.2128p ps=1.5u w=1.12u l=0.13u
X248 r[6].t3 a_1066_18226# VGND.t31 VGND.t30 sg13_lv_nmos ad=0.1406p pd=1.12u as=0.1406p ps=1.12u w=0.74u l=0.13u
X249 VGND.t172 VPWR.t476 VGND.t170 VGND.t130 sg13_lv_nmos ad=0.1428p pd=1.52u as=0 ps=0 w=0.42u l=1u
X250 VGND.t56 a_490_6130# b[2].t2 VGND.t57 sg13_lv_nmos ad=0.1406p pd=1.12u as=0.1406p ps=1.12u w=0.74u l=0.13u
X251 b[6].t6 a_1066_3106# VPWR.t308 VPWR.t123 sg13_lv_pmos ad=0.2128p pd=1.5u as=0.2128p ps=1.5u w=1.12u l=0.13u
X252 a_490_7642# db[0].t0 VGND.t48 VGND.t266 sg13_lv_nmos ad=0.1406p pd=1.12u as=0.1406p ps=1.12u w=0.74u l=0.13u
X253 VPWR.t243 VGND.t637 VPWR.t152 VPWR.t140 sg13_lv_pmos ad=0.34p pd=2.68u as=0 ps=0 w=1u l=1u
X254 r[5].t2 a_490_18984# VGND.t240 VGND.t239 sg13_lv_nmos ad=0.1406p pd=1.12u as=0.1406p ps=1.12u w=0.74u l=0.13u
X255 a_586_22008# dr[1].t0 VPWR.t386 VPWR.t13 sg13_lv_pmos ad=0.2128p pd=1.5u as=0.2128p ps=1.5u w=1.12u l=0.13u
X256 a_1066_15202# dg[0].t0 VPWR.t435 VPWR.t70 sg13_lv_pmos ad=0.3808p pd=2.92u as=0.2128p ps=1.5u w=1.12u l=0.13u
X257 VPWR.t222 VGND.t638 VPWR.t222 VPWR.t26 sg13_lv_pmos ad=0.19p pd=1.38u as=0 ps=0 w=1u l=1u
X258 g[6].t2 a_490_10666# VGND.t69 VGND.t68 sg13_lv_nmos ad=0.1406p pd=1.12u as=0.1406p ps=1.12u w=0.74u l=0.13u
X259 VPWR.t240 VGND.t639 VPWR.t239 VPWR.t123 sg13_lv_pmos ad=0.34p pd=2.68u as=0 ps=0 w=1u l=1u
X260 g[6].t6 a_490_10666# VPWR.t48 VPWR.t9 sg13_lv_pmos ad=0.2128p pd=1.5u as=0.2128p ps=1.5u w=1.12u l=0.13u
X261 a_1066_20496# dr[3].t0 VGND.t292 VGND.t20 sg13_lv_nmos ad=0.2553p pd=2.17u as=0.1406p ps=1.12u w=0.74u l=0.13u
X262 b[6].t7 a_1066_3106# VPWR.t302 VPWR.t123 sg13_lv_pmos ad=0.2128p pd=1.5u as=0.2128p ps=1.5u w=1.12u l=0.13u
X263 VPWR.t231 VGND.t640 VPWR.t231 VPWR.t26 sg13_lv_pmos ad=0.19p pd=1.38u as=0 ps=0 w=1u l=1u
X264 VPWR.t144 VGND.t641 VPWR.t144 VPWR.t79 sg13_lv_pmos ad=0.19p pd=1.38u as=0 ps=0 w=1u l=1u
X265 a_490_22762# dr[0].t0 VPWR.t399 VPWR.t79 sg13_lv_pmos ad=0.3808p pd=2.92u as=0.2128p ps=1.5u w=1.12u l=0.13u
X266 a_490_6130# db[2].t0 VPWR.t376 VPWR.t35 sg13_lv_pmos ad=0.3808p pd=2.92u as=0.2128p ps=1.5u w=1.12u l=0.13u
X267 VGND.t462 db[4].t0 a_1066_4618# VGND.t463 sg13_lv_nmos ad=0.1406p pd=1.12u as=0.1406p ps=1.12u w=0.74u l=0.13u
X268 VGND.t174 VPWR.t477 VGND.t174 VGND.t176 sg13_lv_nmos ad=79.8f pd=0.8u as=0 ps=0 w=0.42u l=1u
X269 VPWR.t431 dr[4].t0 a_490_19738# VPWR.t0 sg13_lv_pmos ad=0.2128p pd=1.5u as=0.2128p ps=1.5u w=1.12u l=0.13u
X270 VPWR.t41 a_490_6130# b[2].t7 VPWR.t35 sg13_lv_pmos ad=0.2128p pd=1.5u as=0.2128p ps=1.5u w=1.12u l=0.13u
X271 g[2].t3 a_490_13690# VGND.t570 VGND.t569 sg13_lv_nmos ad=0.1406p pd=1.12u as=0.1406p ps=1.12u w=0.74u l=0.13u
X272 b[4].t2 a_1066_4618# VGND.t98 VGND.t97 sg13_lv_nmos ad=0.1406p pd=1.12u as=0.1406p ps=1.12u w=0.74u l=0.13u